Compound 3A
     RDKit          3D

 20 22  0  0  0  0  0  0  0  0999 V2000
   40.0090  -42.9070   73.9130 C   0  0  0  0  0  0  0  0  0  0  0  0
   33.1190  -43.4950   75.5170 N   0  0  0  0  0  0  0  0  0  0  0  0
   39.2870  -44.1240   73.8920 O   0  0  0  0  0  0  0  0  0  0  0  0
   37.9290  -44.0930   73.7460 C   0  0  0  0  0  0  0  0  0  0  0  0
   32.2680  -41.4060   75.0980 O   0  0  0  0  0  0  0  0  0  0  0  0
   37.0840  -43.0050   73.9710 C   0  0  0  0  0  0  0  0  0  0  0  0
   35.7150  -43.1640   73.8220 C   0  0  0  0  0  0  0  0  0  0  0  0
   35.1630  -44.3950   73.4690 C   0  0  0  0  0  0  0  0  0  0  0  0
   33.6950  -44.5710   73.3080 C   0  0  0  0  0  0  0  0  0  0  0  0
   33.2030  -45.1970   72.1600 C   0  0  0  0  0  0  0  0  0  0  0  0
   31.8430  -45.3940   71.9720 C   0  0  0  0  0  0  0  0  0  0  0  0
   30.9280  -44.9480   72.9120 C   0  0  0  0  0  0  0  0  0  0  0  0
   31.3500  -44.3330   74.0790 C   0  0  0  0  0  0  0  0  0  0  0  0
   32.7080  -44.1390   74.3060 C   0  0  0  0  0  0  0  0  0  0  0  0
   33.8720  -44.1960   76.5730 C   0  0  0  0  0  0  0  0  0  0  0  0
   34.2140  -43.1220   77.5850 C   0  0  0  0  0  0  0  0  0  0  0  0
   33.3130  -41.9470   77.2450 C   0  0  0  0  0  0  0  0  0  0  0  0
   32.8310  -42.1980   75.8370 C   0  0  0  0  0  0  0  0  0  0  0  0
   36.0290  -45.4650   73.2740 C   0  0  0  0  0  0  0  0  0  0  0  0
   37.3970  -45.3260   73.4060 C   0  0  0  0  0  0  0  0  0  0  0  0
  1  3  1  0
  3  4  1  0
  4  6  2  0
  6  7  1  0
  7  8  2  0
  8  9  1  0
  9 10  2  0
 10 11  1  0
 11 12  2  0
 12 13  1  0
  2 14  1  0
  9 14  1  0
 13 14  2  0
  2 15  1  0
 15 16  1  0
 16 17  1  0
  2 18  1  0
  5 18  2  0
 17 18  1  0
  8 19  1  0
  4 20  1  0
 19 20  2  0
M  END
