Compound 3D
     RDKit          3D

 19 21  0  0  0  0  0  0  0  0999 V2000
   33.1270  -43.5090   75.5300 N   0  0  0  0  0  0  0  0  0  0  0  0
   39.3940  -43.6220   73.9300 C   0  0  0  0  0  0  0  0  0  0  0  0
   32.1980  -41.4210   75.1820 O   0  0  0  0  0  0  0  0  0  0  0  0
   37.9170  -43.8690   73.8100 C   0  0  0  0  0  0  0  0  0  0  0  0
   37.4620  -45.1350   73.4660 C   0  0  0  0  0  0  0  0  0  0  0  0
   36.0790  -45.3570   73.3020 C   0  0  0  0  0  0  0  0  0  0  0  0
   35.1690  -44.2990   73.4900 C   0  0  0  0  0  0  0  0  0  0  0  0
   35.6250  -43.0180   73.8490 C   0  0  0  0  0  0  0  0  0  0  0  0
   37.0020  -42.8100   74.0140 C   0  0  0  0  0  0  0  0  0  0  0  0
   33.7220  -44.5180   73.3430 C   0  0  0  0  0  0  0  0  0  0  0  0
   33.2670  -45.1380   72.1770 C   0  0  0  0  0  0  0  0  0  0  0  0
   31.9010  -45.3490   71.9480 C   0  0  0  0  0  0  0  0  0  0  0  0
   30.9580  -44.9260   72.9020 C   0  0  0  0  0  0  0  0  0  0  0  0
   31.3770  -44.3170   74.0720 C   0  0  0  0  0  0  0  0  0  0  0  0
   32.7590  -44.1090   74.3100 C   0  0  0  0  0  0  0  0  0  0  0  0
   33.8720  -44.2140   76.5840 C   0  0  0  0  0  0  0  0  0  0  0  0
   34.3120  -43.1110   77.5450 C   0  0  0  0  0  0  0  0  0  0  0  0
   33.3460  -41.9630   77.2850 C   0  0  0  0  0  0  0  0  0  0  0  0
   32.8100  -42.2160   75.8860 C   0  0  0  0  0  0  0  0  0  0  0  0
  2  4  1  0
  4  5  2  0
  5  6  1  0
  6  7  2  0
  7  8  1  0
  4  9  1  0
  8  9  2  0
  7 10  1  0
 10 11  2  0
 11 12  1  0
 12 13  2  0
 13 14  1  0
  1 15  1  0
 10 15  1  0
 14 15  2  0
  1 16  1  0
 16 17  1  0
 17 18  1  0
  1 19  1  0
  3 19  2  0
 18 19  1  0
M  END
