FMOPL000706a
     RDKit          3D

 15 15  0  0  0  0  0  0  0  0999 V2000
   35.4680  -40.9230   73.9330 C   0  0  0  0  0  0  0  0  0  0  0  0
   33.8730  -44.0800   73.4190 N   0  0  0  0  0  0  0  0  0  0  0  0
   34.7230  -43.1340   71.5520 O   0  0  0  0  0  0  0  0  0  0  0  0
   36.5310  -41.8340   73.3600 C   0  0  0  0  0  0  0  0  0  0  0  0
   31.7380  -43.1450   74.6510 O   0  0  0  0  0  0  0  0  0  0  0  0
   36.1850  -43.3190   73.4380 C   0  0  2  0  0  0  0  0  0  0  0  0
   37.3340  -44.1370   72.8170 C   0  0  0  0  0  0  0  0  0  0  0  0
   37.4110  -45.5680   73.2550 C   0  0  0  0  0  0  0  0  0  0  0  0
   34.8670  -43.5120   72.7090 C   0  0  0  0  0  0  0  0  0  0  0  0
   32.6100  -44.4570   72.9100 C   0  0  0  0  0  0  0  0  0  0  0  0
   32.4330  -45.2510   71.7970 C   0  0  0  0  0  0  0  0  0  0  0  0
   31.1510  -45.5380   71.3510 C   0  0  0  0  0  0  0  0  0  0  0  0
   30.0540  -45.0240   72.0060 C   0  0  0  0  0  0  0  0  0  0  0  0
   30.2210  -44.2360   73.1250 C   0  0  0  0  0  0  0  0  0  0  0  0
   31.5030  -43.9330   73.5780 C   0  0  0  0  0  0  0  0  0  0  0  0
  1  4  1  0
  6  4  1  6
  6  7  1  0
  7  8  1  0
  2  9  1  0
  3  9  2  0
  6  9  1  0
  2 10  1  0
 10 11  2  0
 11 12  1  0
 12 13  2  0
 13 14  1  0
  5 15  1  0
 10 15  1  0
 14 15  2  0
M  END
