FMOPL000747a
     RDKit          3D

 18 19  0  0  0  0  0  0  0  0999 V2000
   37.4500  -43.2830   72.2130 C   0  0  0  0  0  0  0  0  0  0  0  0
   32.9460  -43.3970   73.8190 N   0  0  0  0  0  0  0  0  0  0  0  0
   31.5470  -41.7020   73.4060 O   0  0  0  0  0  0  0  0  0  0  0  0
   37.2870  -44.0450   73.5350 C   0  0  2  0  0  0  0  0  0  0  0  0
   38.2190  -43.4030   74.5760 C   0  0  0  0  0  0  0  0  0  0  0  0
   37.7550  -45.4880   73.3110 C   0  0  0  0  0  0  0  0  0  0  0  0
   35.8010  -43.9940   74.0150 C   0  0  2  0  0  0  0  0  0  0  0  0
   34.8380  -44.8030   73.1460 C   0  0  0  0  0  0  0  0  0  0  0  0
   33.4190  -44.7770   73.6820 C   0  0  0  0  0  0  0  0  0  0  0  0
   33.8160  -42.5640   74.6560 C   0  0  0  0  0  0  0  0  0  0  0  0
   35.2440  -42.5780   74.1420 C   0  0  0  0  0  0  0  0  0  0  0  0
   31.8450  -42.8820   73.2610 C   0  0  0  0  0  0  0  0  0  0  0  0
   30.9540  -43.7350   72.4030 C   0  0  0  0  0  0  0  0  0  0  0  0
   31.4100  -44.2480   71.1960 C   0  0  0  0  0  0  0  0  0  0  0  0
   30.5660  -44.9990   70.3960 C   0  0  0  0  0  0  0  0  0  0  0  0
   29.2650  -45.2280   70.7820 C   0  0  0  0  0  0  0  0  0  0  0  0
   28.7950  -44.6970   71.9610 C   0  0  0  0  0  0  0  0  0  0  0  0
   29.6290  -43.9340   72.7630 C   0  0  0  0  0  0  0  0  0  0  0  0
  4  1  1  6
  4  5  1  0
  4  6  1  0
  4  7  1  0
  7  8  1  6
  2  9  1  0
  8  9  1  0
  2 10  1  0
  7 11  1  0
 10 11  1  0
  2 12  1  0
  3 12  2  0
 12 13  1  0
 13 14  2  0
 14 15  1  0
 15 16  2  0
 16 17  1  0
 13 18  1  0
 17 18  2  0
M  END
