FMOPL000679a
     RDKit          3D

 51 57  0  0  0  0  0  0  0  0999 V2000
   29.4190  -45.1750   72.2380 C   0  0  0  0  0  0  0  0  0  0  0  0
   35.0010  -44.3120   73.2300 N   0  0  0  0  0  0  0  0  0  0  0  0
   30.8770  -44.9240   72.5510 C   0  0  0  0  0  0  0  0  0  0  0  0
   39.3660  -43.5190   73.7160 N   0  0  0  0  0  0  0  0  0  0  0  0
   31.8580  -45.3860   71.6950 C   0  0  0  0  0  0  0  0  0  0  0  0
   39.1980  -43.5170   75.0720 N   0  0  0  0  0  0  0  0  0  0  0  0
   33.1980  -45.1670   71.9480 C   0  0  0  0  0  0  0  0  0  0  0  0
   37.3830  -43.8130   76.6240 N   0  0  0  0  0  0  0  0  0  0  0  0
   33.6010  -44.5150   73.1060 C   0  0  0  0  0  0  0  0  0  0  0  0
   35.2660  -44.2350   75.5480 N   0  0  0  0  0  0  0  0  0  0  0  0
   32.6180  -44.0360   73.9740 C   0  0  0  0  0  0  0  0  0  0  0  0
   31.2780  -44.2560   73.6960 C   0  0  0  0  0  0  0  0  0  0  0  0
   35.7910  -44.1460   74.3220 C   0  0  0  0  0  0  0  0  0  0  0  0
   37.1870  -43.9000   74.1940 C   0  0  0  0  0  0  0  0  0  0  0  0
   38.1710  -43.7330   73.1860 C   0  0  0  0  0  0  0  0  0  0  0  0
   37.9150  -43.7470   75.4020 C   0  0  0  0  0  0  0  0  0  0  0  0
   36.0730  -44.0480   76.6010 C   0  0  0  0  0  0  0  0  0  0  0  0
   35.7130  -40.5370   77.3090 C   0  0  0  0  0  0  0  0  0  0  0  0
   32.8710  -40.9630   72.3490 N   0  0  0  0  0  0  0  0  0  0  0  0
   34.9600  -40.6450   76.0120 C   0  0  0  0  0  0  0  0  0  0  0  0
   30.9200  -42.8760   68.8790 N   0  0  0  0  0  0  0  0  0  0  0  0
   35.6220  -40.7600   74.8050 C   0  0  0  0  0  0  0  0  0  0  0  0
   29.6950  -42.5750   69.4180 N   0  0  0  0  0  0  0  0  0  0  0  0
   34.9330  -40.8580   73.6070 C   0  0  0  0  0  0  0  0  0  0  0  0
   28.8420  -41.4870   71.4080 N   0  0  0  0  0  0  0  0  0  0  0  0
   33.5350  -40.8450   73.5970 C   0  0  0  0  0  0  0  0  0  0  0  0
   30.5820  -40.6840   72.8670 N   0  0  0  0  0  0  0  0  0  0  0  0
   32.8590  -40.7280   74.8100 C   0  0  0  0  0  0  0  0  0  0  0  0
   33.5740  -40.6450   75.9930 C   0  0  0  0  0  0  0  0  0  0  0  0
   31.5530  -41.1480   72.0580 C   0  0  0  0  0  0  0  0  0  0  0  0
   31.1940  -41.8040   70.8540 C   0  0  0  0  0  0  0  0  0  0  0  0
   31.8140  -42.4160   69.7370 C   0  0  0  0  0  0  0  0  0  0  0  0
   29.8150  -41.9340   70.5970 C   0  0  0  0  0  0  0  0  0  0  0  0
   29.3070  -40.8880   72.5030 C   0  0  0  0  0  0  0  0  0  0  0  0
   58.9280  -51.4080   78.0630 C   0  0  0  0  0  0  0  0  0  0  0  0
   57.9240  -55.4200   82.0110 N   0  0  0  0  0  0  0  0  0  0  0  0
   58.6310  -52.4330   79.1230 C   0  0  0  0  0  0  0  0  0  0  0  0
   56.8990  -58.3580   85.1360 N   0  0  0  0  0  0  0  0  0  0  0  0
   58.0390  -52.0920   80.3250 C   0  0  0  0  0  0  0  0  0  0  0  0
   58.0230  -57.9940   85.8360 N   0  0  0  0  0  0  0  0  0  0  0  0
   57.8070  -53.0460   81.3040 C   0  0  0  0  0  0  0  0  0  0  0  0
   59.8450  -56.4120   85.5900 N   0  0  0  0  0  0  0  0  0  0  0  0
   58.1530  -54.3760   81.0870 C   0  0  0  0  0  0  0  0  0  0  0  0
   59.6800  -55.1120   83.5660 N   0  0  0  0  0  0  0  0  0  0  0  0
   58.7320  -54.7250   79.8800 C   0  0  0  0  0  0  0  0  0  0  0  0
   58.9730  -53.7580   78.9220 C   0  0  0  0  0  0  0  0  0  0  0  0
   58.5550  -55.7410   83.1760 C   0  0  0  0  0  0  0  0  0  0  0  0
   58.0090  -56.7430   84.0110 C   0  0  0  0  0  0  0  0  0  0  0  0
   56.9010  -57.6270   84.0400 C   0  0  0  0  0  0  0  0  0  0  0  0
   58.7100  -57.0230   85.2040 C   0  0  0  0  0  0  0  0  0  0  0  0
   60.2400  -55.4790   84.7300 C   0  0  0  0  0  0  0  0  0  0  0  0
  1  3  1  0
  3  5  2  0
  4  6  1  0
  5  7  1  0
  2  9  1  0
  7  9  2  0
  9 11  1  0
  3 12  1  0
 11 12  2  0
  2 13  1  0
 10 13  1  0
 13 14  2  0
  4 15  2  0
 14 15  1  0
  6 16  1  0
  8 16  2  0
 14 16  1  0
  8 17  1  0
 10 17  2  0
 18 20  1  0
 20 22  1  0
 21 23  1  0
 22 24  1  0
 19 26  1  0
 24 26  1  0
 26 28  1  0
 20 29  1  0
 28 29  1  0
 19 30  1  0
 27 30  1  0
 30 31  1  0
 21 32  1  0
 31 32  1  0
 23 33  1  0
 25 33  1  0
 31 33  1  0
 25 34  1  0
 27 34  1  0
 35 37  1  0
 37 39  1  0
 38 40  1  0
 39 41  1  0
 36 43  1  0
 41 43  1  0
 43 45  1  0
 37 46  1  0
 45 46  1  0
 36 47  1  0
 44 47  1  0
 47 48  1  0
 38 49  1  0
 48 49  1  0
 40 50  1  0
 42 50  1  0
 48 50  1  0
 42 51  1  0
 44 51  1  0
M  END
