FMOPL000275a
     RDKit          3D

 15 15  0  0  0  0  0  0  0  0999 V2000
   29.8110  -43.5870   73.9420 C   0  0  0  0  0  0  0  0  0  0  0  0
   31.0220  -44.0380   73.3430 O   0  0  0  0  0  0  0  0  0  0  0  0
   32.1530  -44.0080   74.1100 C   0  0  0  0  0  0  0  0  0  0  0  0
   33.2690  -44.6420   72.0980 O   0  0  0  0  0  0  0  0  0  0  0  0
   32.1910  -43.7070   75.4480 C   0  0  0  0  0  0  0  0  0  0  0  0
   35.6450  -44.6510   73.3500 O   0  0  0  0  0  0  0  0  0  0  0  0
   33.4090  -43.7350   76.1200 C   0  0  0  0  0  0  0  0  0  0  0  0
   34.5530  -43.0060   78.0230 O   0  0  0  0  0  0  0  0  0  0  0  0
   34.5850  -44.0550   75.4490 C   0  0  0  0  0  0  0  0  0  0  0  0
   32.4320  -43.5100   78.2380 O   0  0  0  0  0  0  0  0  0  0  0  0
   34.5470  -44.3710   74.1150 C   0  0  0  0  0  0  0  0  0  0  0  0
   33.3300  -44.3270   73.4310 C   0  0  0  0  0  0  0  0  0  0  0  0
   32.2170  -45.5520   71.7910 C   0  0  0  0  0  0  0  0  0  0  0  0
   36.3160  -45.8920   73.5420 C   0  0  0  0  0  0  0  0  0  0  0  0
   33.4680  -43.3950   77.5710 C   0  0  0  0  0  0  0  0  0  0  0  0
  1  2  1  0
  2  3  1  0
  3  5  2  0
  5  7  1  0
  7  9  2  0
  6 11  1  0
  9 11  1  0
  3 12  1  0
  4 12  1  0
 11 12  2  0
  4 13  1  0
  6 14  1  0
  7 15  1  0
  8 15  1  0
 10 15  2  0
M  END
