FMOPL000609a
     RDKit          3D

 15 16  0  0  0  0  0  0  0  0999 V2000
   37.6830  -45.3360   73.3420 C   0  0  0  0  0  0  0  0  0  0  0  0
   34.3470  -42.7640   75.6360 N   0  0  0  0  0  0  0  0  0  0  0  0
   35.5770  -44.3440   73.8450 O   0  0  0  0  0  0  0  0  0  0  0  0
   36.2210  -45.3210   73.0190 C   0  0  0  0  0  0  0  0  0  0  0  0
   35.8780  -41.3900   77.6410 N   0  0  0  0  0  0  0  0  0  0  0  0
   34.2180  -44.2700   73.7830 C   0  0  0  0  0  0  0  0  0  0  0  0
   33.4770  -44.9540   72.8300 C   0  0  0  0  0  0  0  0  0  0  0  0
   32.1010  -44.8360   72.8150 C   0  0  0  0  0  0  0  0  0  0  0  0
   31.4590  -44.0270   73.7270 C   0  0  0  0  0  0  0  0  0  0  0  0
   32.1890  -43.3310   74.6860 C   0  0  0  0  0  0  0  0  0  0  0  0
   33.5760  -43.4450   74.7260 C   0  0  0  0  0  0  0  0  0  0  0  0
   35.5280  -43.4120   76.2280 C   0  0  0  0  0  0  0  0  0  0  0  0
   35.9310  -42.8680   77.5790 C   0  0  0  0  0  0  0  0  0  0  0  0
   34.5300  -40.9030   77.2910 C   0  0  0  0  0  0  0  0  0  0  0  0
   34.1330  -41.3320   75.8990 C   0  0  0  0  0  0  0  0  0  0  0  0
  1  4  1  0
  3  4  1  0
  3  6  1  0
  6  7  2  0
  7  8  1  0
  8  9  2  0
  9 10  1  0
  2 11  1  0
  6 11  1  0
 10 11  2  0
  2 12  1  0
  5 13  1  0
 12 13  1  0
  5 14  1  0
  2 15  1  0
 14 15  1  0
M  END
