NUOOA000224a
     RDKit          3D

 15 16  0  0  0  0  0  0  0  0999 V2000
   39.5700  -43.4210   74.5180 C   0  0  0  0  0  0  0  0  0  0  0  0
   41.0360  -41.5480   74.1470 N   0  0  0  0  0  0  0  0  0  0  0  0
   42.4400  -38.3570   73.7670 O   0  0  0  0  0  0  0  0  0  0  0  0
   39.8600  -42.1200   73.8020 C   0  0  0  0  0  0  0  0  0  0  0  0
   42.2050  -39.5370   74.5190 N   0  0  0  0  0  0  0  0  0  0  0  0
   39.0910  -41.6370   72.9700 O   0  0  0  0  0  0  0  0  0  0  0  0
   41.4840  -40.2930   73.7420 C   0  0  0  0  0  0  0  0  0  0  0  0
   41.2670  -39.6780   72.5060 C   0  0  0  0  0  0  0  0  0  0  0  0
   41.8700  -38.4790   72.5510 C   0  0  0  0  0  0  0  0  0  0  0  0
   38.1850  -43.9430   74.2500 C   0  0  0  0  0  0  0  0  0  0  0  0
   37.3160  -44.2040   75.3000 C   0  0  0  0  0  0  0  0  0  0  0  0
   36.0440  -44.6960   75.0560 C   0  0  0  0  0  0  0  0  0  0  0  0
   35.6290  -44.9270   73.7670 C   0  0  0  0  0  0  0  0  0  0  0  0
   36.4820  -44.6740   72.7180 C   0  0  0  0  0  0  0  0  0  0  0  0
   37.7560  -44.1870   72.9560 C   0  0  0  0  0  0  0  0  0  0  0  0
  1  4  1  0
  2  4  1  0
  3  5  1  0
  4  6  2  0
  2  7  1  0
  5  7  2  0
  7  8  1  0
  3  9  1  0
  8  9  2  0
  1 10  1  0
 10 11  2  0
 11 12  1  0
 12 13  2  0
 13 14  1  0
 10 15  1  0
 14 15  2  0
M  END
