NUOOA000220a
     RDKit          3D

 17 18  0  0  0  0  0  0  0  0999 V2000
   38.5360  -44.7110   79.2080 C   0  0  0  0  0  0  0  0  0  0  0  0
   41.0210  -41.8650   73.9610 N   0  0  0  0  0  0  0  0  0  0  0  0
   38.3260  -43.6030   78.3500 O   0  0  0  0  0  0  0  0  0  0  0  0
   37.8790  -43.8210   77.0660 C   0  0  0  0  0  0  0  0  0  0  0  0
   42.3820  -40.0040   74.5560 N   0  0  0  0  0  0  0  0  0  0  0  0
   42.6500  -38.7470   73.9680 O   0  0  0  0  0  0  0  0  0  0  0  0
   36.5620  -44.0920   76.7320 C   0  0  0  0  0  0  0  0  0  0  0  0
   39.2000  -41.6590   72.6120 O   0  0  0  0  0  0  0  0  0  0  0  0
   36.2180  -44.2780   75.4060 C   0  0  0  0  0  0  0  0  0  0  0  0
   37.1760  -44.1790   74.4150 C   0  0  0  0  0  0  0  0  0  0  0  0
   38.4900  -43.8890   74.7400 C   0  0  0  0  0  0  0  0  0  0  0  0
   39.5540  -43.7760   73.6830 C   0  0  0  0  0  0  0  0  0  0  0  0
   39.8910  -42.3350   73.3720 C   0  0  0  0  0  0  0  0  0  0  0  0
   41.5540  -40.5930   73.7390 C   0  0  0  0  0  0  0  0  0  0  0  0
   41.2850  -39.7800   72.6390 C   0  0  0  0  0  0  0  0  0  0  0  0
   41.9770  -38.6440   72.8070 C   0  0  0  0  0  0  0  0  0  0  0  0
   38.8290  -43.7080   76.0730 C   0  0  0  0  0  0  0  0  0  0  0  0
  1  3  1  0
  3  4  1  0
  5  6  1  0
  4  7  2  0
  7  9  1  0
  9 10  2  0
 10 11  1  0
 11 12  1  0
  2 13  1  0
  8 13  2  0
 12 13  1  0
  2 14  1  0
  5 14  2  0
 14 15  1  0
  6 16  1  0
 15 16  2  0
  4 17  1  0
 11 17  2  0
M  END
