NUOOA000191
     RDKit          3D

 36 38  0  0  0  0  0  0  0  0999 V2000
   39.3320  -44.0190   74.5060 C   0  0  0  0  0  0  0  0  0  0  0  0
   40.7680  -42.1210   74.1440 N   0  0  0  0  0  0  0  0  0  0  0  0
   38.8370  -42.2670   72.9580 O   0  0  0  0  0  0  0  0  0  0  0  0
   39.6090  -42.7180   73.7940 C   0  0  0  0  0  0  0  0  0  0  0  0
   42.4950  -38.8950   74.1190 N   0  0  0  0  0  0  0  0  0  0  0  0
   41.2570  -40.8960   73.6630 C   0  0  0  0  0  0  0  0  0  0  0  0
   41.0360  -40.4800   72.3570 C   0  0  0  0  0  0  0  0  0  0  0  0
   41.5460  -39.2630   71.9570 C   0  0  0  0  0  0  0  0  0  0  0  0
   42.2480  -38.5060   72.8580 C   0  0  0  0  0  0  0  0  0  0  0  0
   42.0030  -40.0740   74.5010 C   0  0  0  0  0  0  0  0  0  0  0  0
   37.8510  -44.2960   74.5260 C   0  0  0  0  0  0  0  0  0  0  0  0
   37.0580  -43.9020   75.5990 C   0  0  0  0  0  0  0  0  0  0  0  0
   35.6910  -44.1380   75.5950 C   0  0  0  0  0  0  0  0  0  0  0  0
   35.1480  -44.7900   74.5270 C   0  0  0  0  0  0  0  0  0  0  0  0
   35.8800  -45.2120   73.4500 C   0  0  0  0  0  0  0  0  0  0  0  0
   37.2330  -44.9450   73.4810 C   0  0  0  0  0  0  0  0  0  0  0  0
   37.9870  -45.3400   72.4340 F   0  0  0  0  0  0  0  0  0  0  0  0
   33.8110  -45.0270   74.5250 F   0  0  0  0  0  0  0  0  0  0  0  0
   52.8830  -34.5060   83.6390 C   0  0  0  0  0  0  0  0  0  0  0  0
   53.3780  -36.5250   82.3940 N   0  0  0  0  0  0  0  0  0  0  0  0
   54.0850  -36.3620   84.5390 O   0  0  0  0  0  0  0  0  0  0  0  0
   53.5020  -35.8830   83.5770 C   0  0  0  0  0  0  0  0  0  0  0  0
   54.9020  -39.8560   82.7730 N   0  0  0  0  0  0  0  0  0  0  0  0
   53.9970  -37.7500   82.0510 C   0  0  0  0  0  0  0  0  0  0  0  0
   54.2930  -38.0720   80.7330 C   0  0  0  0  0  0  0  0  0  0  0  0
   54.8920  -39.2850   80.4630 C   0  0  0  0  0  0  0  0  0  0  0  0
   55.1710  -40.1420   81.4990 C   0  0  0  0  0  0  0  0  0  0  0  0
   54.3270  -38.6770   83.0330 C   0  0  0  0  0  0  0  0  0  0  0  0
   53.5550  -33.6120   84.6560 C   0  0  0  0  0  0  0  0  0  0  0  0
   54.9230  -33.3600   84.6000 C   0  0  0  0  0  0  0  0  0  0  0  0
   55.5280  -32.5270   85.5280 C   0  0  0  0  0  0  0  0  0  0  0  0
   54.7520  -31.9560   86.5000 C   0  0  0  0  0  0  0  0  0  0  0  0
   53.4000  -32.1660   86.6030 C   0  0  0  0  0  0  0  0  0  0  0  0
   52.8320  -32.9950   85.6620 C   0  0  0  0  0  0  0  0  0  0  0  0
   51.4970  -33.2140   85.7340 F   0  0  0  0  0  0  0  0  0  0  0  0
   55.3440  -31.1290   87.4000 F   0  0  0  0  0  0  0  0  0  0  0  0
  1  4  1  0
  2  4  1  0
  3  4  2  0
  2  6  1  0
  6  7  1  0
  7  8  2  0
  5  9  2  0
  8  9  1  0
  5 10  1  0
  6 10  2  0
  1 11  1  0
 11 12  2  0
 12 13  1  0
 13 14  2  0
 14 15  1  0
 11 16  1  0
 15 16  2  0
 16 17  1  0
 14 18  1  0
 19 22  1  0
 20 22  1  0
 21 22  1  0
 20 24  1  0
 24 25  1  0
 25 26  1  0
 23 27  1  0
 26 27  1  0
 23 28  1  0
 24 28  1  0
 19 29  1  0
 29 30  1  0
 30 31  1  0
 31 32  1  0
 32 33  1  0
 29 34  1  0
 33 34  1  0
 34 35  1  0
 32 36  1  0
M  END
