NUOOA000158
     RDKit          3D

 17 18  0  0  0  0  0  0  0  0999 V2000
   41.3680  -38.8160   70.0890 Cl  0  0  0  0  0  0  0  0  0  0  0  0
   39.4790  -43.9950   74.2700 C   0  0  0  0  0  0  0  0  0  0  0  0
   40.7560  -41.9750   74.0730 N   0  0  0  0  0  0  0  0  0  0  0  0
   38.9960  -42.2880   72.6680 O   0  0  0  0  0  0  0  0  0  0  0  0
   39.7050  -42.6700   73.5890 C   0  0  0  0  0  0  0  0  0  0  0  0
   41.2790  -40.7780   73.5470 C   0  0  0  0  0  0  0  0  0  0  0  0
   42.0140  -39.9540   74.3860 C   0  0  0  0  0  0  0  0  0  0  0  0
   42.5320  -38.7770   73.8940 C   0  0  0  0  0  0  0  0  0  0  0  0
   42.3320  -38.4130   72.5760 C   0  0  0  0  0  0  0  0  0  0  0  0
   41.6210  -39.2530   71.7570 C   0  0  0  0  0  0  0  0  0  0  0  0
   41.0830  -40.4370   72.2170 C   0  0  0  0  0  0  0  0  0  0  0  0
   38.0270  -44.3930   74.2520 C   0  0  0  0  0  0  0  0  0  0  0  0
   37.1580  -43.8890   75.2040 C   0  0  0  0  0  0  0  0  0  0  0  0
   35.8230  -44.2520   75.2050 C   0  0  0  0  0  0  0  0  0  0  0  0
   35.3530  -45.1350   74.2660 C   0  0  0  0  0  0  0  0  0  0  0  0
   36.2060  -45.6550   73.3250 C   0  0  0  0  0  0  0  0  0  0  0  0
   37.5420  -45.2860   73.3110 C   0  0  0  0  0  0  0  0  0  0  0  0
  2  5  1  0
  3  5  1  0
  4  5  2  0
  3  6  1  0
  6  7  2  0
  7  8  1  0
  8  9  2  0
  1 10  1  0
  9 10  1  0
  6 11  1  0
 10 11  2  0
  2 12  1  0
 12 13  2  0
 13 14  1  0
 14 15  2  0
 15 16  1  0
 12 17  1  0
 16 17  2  0
M  END
