NUOOA000194a
     RDKit          3D

 16 17  0  0  0  0  0  0  0  0999 V2000
   37.5460  -44.2240   78.3640 C   0  0  0  0  0  0  0  0  0  0  0  0
   40.9170  -41.9040   74.0660 N   0  0  0  0  0  0  0  0  0  0  0  0
   42.4830  -38.7560   74.1320 O   0  0  0  0  0  0  0  0  0  0  0  0
   37.3250  -43.9990   76.8910 C   0  0  0  0  0  0  0  0  0  0  0  0
   42.1740  -40.0020   74.7290 N   0  0  0  0  0  0  0  0  0  0  0  0
   39.2380  -41.7600   72.5420 O   0  0  0  0  0  0  0  0  0  0  0  0
   36.0640  -43.7600   76.3670 C   0  0  0  0  0  0  0  0  0  0  0  0
   35.8770  -43.5560   75.0140 C   0  0  0  0  0  0  0  0  0  0  0  0
   36.9640  -43.5690   74.1630 C   0  0  0  0  0  0  0  0  0  0  0  0
   38.2380  -43.8020   74.6630 C   0  0  0  0  0  0  0  0  0  0  0  0
   39.4480  -43.8120   73.7650 C   0  0  0  0  0  0  0  0  0  0  0  0
   39.8440  -42.3980   73.3990 C   0  0  0  0  0  0  0  0  0  0  0  0
   41.4390  -40.6270   73.8550 C   0  0  0  0  0  0  0  0  0  0  0  0
   41.2750  -39.8520   72.7060 C   0  0  0  0  0  0  0  0  0  0  0  0
   41.9260  -38.6990   72.9080 C   0  0  0  0  0  0  0  0  0  0  0  0
   38.3890  -44.0110   76.0260 C   0  0  0  0  0  0  0  0  0  0  0  0
  1  4  1  0
  3  5  1  0
  4  7  2  0
  7  8  1  0
  8  9  2  0
  9 10  1  0
 10 11  1  0
  2 12  1  0
  6 12  2  0
 11 12  1  0
  2 13  1  0
  5 13  2  0
 13 14  1  0
  3 15  1  0
 14 15  2  0
  4 16  1  0
 10 16  2  0
M  END
