NUOOA000161
     RDKit          3D

 18 19  0  0  0  0  0  0  0  0999 V2000
   41.3880  -38.8370   70.0630 Cl  0  0  0  0  0  0  0  0  0  0  0  0
   39.4350  -44.0190   74.3030 C   0  0  0  0  0  0  0  0  0  0  0  0
   40.7800  -42.0340   74.0420 N   0  0  0  0  0  0  0  0  0  0  0  0
   39.0650  -42.3860   72.5970 O   0  0  0  0  0  0  0  0  0  0  0  0
   39.7280  -42.7350   73.5640 C   0  0  0  0  0  0  0  0  0  0  0  0
   41.2850  -40.8260   73.5170 C   0  0  0  0  0  0  0  0  0  0  0  0
   42.0020  -39.9940   74.3670 C   0  0  0  0  0  0  0  0  0  0  0  0
   42.5050  -38.8070   73.8860 C   0  0  0  0  0  0  0  0  0  0  0  0
   42.3120  -38.4350   72.5670 C   0  0  0  0  0  0  0  0  0  0  0  0
   41.6230  -39.2820   71.7330 C   0  0  0  0  0  0  0  0  0  0  0  0
   41.0940  -40.4750   72.1860 C   0  0  0  0  0  0  0  0  0  0  0  0
   37.9570  -44.3100   74.3430 C   0  0  0  0  0  0  0  0  0  0  0  0
   37.1930  -43.8730   75.4100 C   0  0  0  0  0  0  0  0  0  0  0  0
   35.8310  -44.1130   75.4660 C   0  0  0  0  0  0  0  0  0  0  0  0
   35.2580  -44.8110   74.4510 C   0  0  0  0  0  0  0  0  0  0  0  0
   35.9650  -45.2760   73.3800 C   0  0  0  0  0  0  0  0  0  0  0  0
   37.3290  -45.0160   73.3310 C   0  0  0  0  0  0  0  0  0  0  0  0
   33.9170  -45.0400   74.5130 F   0  0  0  0  0  0  0  0  0  0  0  0
  2  5  1  0
  3  5  1  0
  4  5  2  0
  3  6  1  0
  6  7  2  0
  7  8  1  0
  8  9  2  0
  1 10  1  0
  9 10  1  0
  6 11  1  0
 10 11  2  0
  2 12  1  0
 12 13  2  0
 13 14  1  0
 14 15  2  0
 15 16  1  0
 12 17  1  0
 16 17  2  0
 15 18  1  0
M  END
