OX-221
     RDKit          3D

 18 21  0  0  0  0  0  0  0  0999 V2000
   36.1830  -41.3950   77.6500 N   0  0  0  0  0  0  0  0  0  0  0  0
   35.5750  -43.9150   75.1080 C   0  0  1  0  0  0  0  0  0  0  0  0
   36.7550  -44.3020   75.8010 O   0  0  0  0  0  0  0  0  0  0  0  0
   34.5520  -45.1200   75.0760 C   0  0  0  0  0  0  0  0  0  0  0  0
   33.7280  -42.4330   75.2900 N   0  0  0  0  0  0  0  0  0  0  0  0
   33.0470  -44.7640   75.0490 C   0  0  2  0  0  0  0  0  0  0  0  0
   32.4040  -44.7220   73.6660 C   0  0  0  0  0  0  0  0  0  0  0  0
   31.0010  -44.6690   73.6130 C   0  0  0  0  0  0  0  0  0  0  0  0
   30.3180  -44.6450   72.3940 C   0  0  0  0  0  0  0  0  0  0  0  0
   31.0420  -44.6770   71.1930 C   0  0  0  0  0  0  0  0  0  0  0  0
   32.4290  -44.7330   71.2320 C   0  0  0  0  0  0  0  0  0  0  0  0
   33.1080  -44.7500   72.4490 C   0  0  0  0  0  0  0  0  0  0  0  0
   32.7900  -43.4400   75.8310 C   0  0  1  0  0  0  0  0  0  0  0  0
   33.1750  -43.5820   77.3560 C   0  0  0  0  0  0  0  0  0  0  0  0
   34.6740  -43.2940   77.3910 C   0  0  2  0  0  0  0  0  0  0  0  0
   35.1410  -42.1770   78.3150 C   0  0  0  0  0  0  0  0  0  0  0  0
   35.9340  -41.5430   76.1740 C   0  0  0  0  0  0  0  0  0  0  0  0
   35.0100  -42.7630   75.9670 C   0  0  1  0  0  0  0  0  0  0  0  0
  2  3  1  1
  2  4  1  0
  6  4  1  6
  6  7  1  0
  7  8  2  0
  8  9  1  0
  9 10  2  0
 10 11  1  0
  7 12  1  0
 11 12  2  0
  5 13  1  0
  6 13  1  0
 13 14  1  1
 15 14  1  6
  1 16  1  0
 15 16  1  0
  1 17  1  0
  2 18  1  0
  5 18  1  0
 15 18  1  0
 18 17  1  1
M  END
