OX-220
     RDKit          3D

 18 21  0  0  0  0  0  0  0  0999 V2000
   35.3220  -43.5870   74.4120 C   0  0  2  0  0  0  0  0  0  0  0  0
   36.2130  -41.7080   77.1910 N   0  0  0  0  0  0  0  0  0  0  0  0
   35.1630  -42.8010   73.2280 O   0  0  0  0  0  0  0  0  0  0  0  0
   34.6020  -44.9240   74.2600 C   0  0  0  0  0  0  0  0  0  0  0  0
   33.3350  -42.6200   75.4190 N   0  0  0  0  0  0  0  0  0  0  0  0
   33.1130  -44.9190   74.6500 C   0  0  2  0  0  0  0  0  0  0  0  0
   32.2080  -44.7290   73.4450 C   0  0  0  0  0  0  0  0  0  0  0  0
   32.7250  -44.7250   72.1540 C   0  0  0  0  0  0  0  0  0  0  0  0
   31.8910  -44.5540   71.0570 C   0  0  0  0  0  0  0  0  0  0  0  0
   30.5360  -44.3970   71.2300 C   0  0  0  0  0  0  0  0  0  0  0  0
   30.0070  -44.4150   72.4960 C   0  0  0  0  0  0  0  0  0  0  0  0
   30.8340  -44.5800   73.5980 C   0  0  0  0  0  0  0  0  0  0  0  0
   32.7840  -43.9320   75.7720 C   0  0  1  0  0  0  0  0  0  0  0  0
   33.4620  -44.1880   77.1280 C   0  0  0  0  0  0  0  0  0  0  0  0
   34.8760  -43.6190   76.9230 C   0  0  2  0  0  0  0  0  0  0  0  0
   35.3170  -42.5850   77.9480 C   0  0  0  0  0  0  0  0  0  0  0  0
   35.5290  -41.4740   75.9150 C   0  0  0  0  0  0  0  0  0  0  0  0
   34.7910  -42.7960   75.6050 C   0  0  1  0  0  0  0  0  0  0  0  0
  1  3  1  1
  1  4  1  0
  6  4  1  6
  6  7  1  0
  7  8  2  0
  8  9  1  0
  9 10  2  0
 10 11  1  0
  7 12  1  0
 11 12  2  0
  5 13  1  0
  6 13  1  0
 13 14  1  1
 15 14  1  1
  2 16  1  0
 15 16  1  0
  2 17  1  0
  1 18  1  0
  5 18  1  0
 15 18  1  0
 18 17  1  1
M  END
