PCM-0102558
     RDKit          3D

 19 20  0  0  0  0  0  0  0  0999 V2000
   36.3870  -43.2830   75.4250 N   0  0  0  0  0  0  0  0  0  0  0  0
   29.5290  -43.4050   78.4010 C   0  0  0  0  0  0  0  0  0  0  0  0
   30.6040  -44.2630   77.9850 O   0  0  0  0  0  0  0  0  0  0  0  0
   31.7200  -43.8240   77.2840 C   0  0  0  0  0  0  0  0  0  0  0  0
   37.8900  -43.8160   76.9300 O   0  0  0  0  0  0  0  0  0  0  0  0
   31.8180  -42.5200   76.7530 C   0  0  0  0  0  0  0  0  0  0  0  0
   32.9630  -42.1210   76.0420 C   0  0  0  0  0  0  0  0  0  0  0  0
   34.0310  -43.0080   75.8470 C   0  0  0  0  0  0  0  0  0  0  0  0
   35.2160  -42.4840   75.0880 C   0  0  2  0  0  0  0  0  0  0  0  0
   34.9690  -42.4560   73.5830 C   0  0  0  0  0  0  0  0  0  0  0  0
   36.1750  -41.9390   72.7900 C   0  0  0  0  0  0  0  0  0  0  0  0
   37.4580  -42.7970   72.6910 C   0  0  0  0  0  0  0  0  0  0  0  0
   37.4150  -44.2200   73.2100 C   0  0  0  0  0  0  0  0  0  0  0  0
   36.6600  -44.4570   74.5410 C   0  0  0  0  0  0  0  0  0  0  0  0
   37.0730  -42.9960   76.5740 C   0  0  0  0  0  0  0  0  0  0  0  0
   36.8710  -41.7830   77.4660 C   0  0  0  0  0  0  0  0  0  0  0  0
   33.9280  -44.3110   76.3840 C   0  0  0  0  0  0  0  0  0  0  0  0
   32.7860  -44.7150   77.0890 C   0  0  0  0  0  0  0  0  0  0  0  0
   37.8700  -40.3070   77.2140 R   0  0  0  0  0  0  0  0  0  0  0  0
  2  3  1  0
  3  4  1  0
  4  6  2  0
  6  7  1  0
  7  8  2  0
  1  9  1  0
  8  9  1  0
  9 10  1  6
 10 11  1  0
 11 12  2  0
 12 13  1  0
  1 14  1  0
 13 14  1  0
  1 15  1  0
  5 15  2  0
 15 16  1  0
  8 17  1  0
  4 18  1  0
 17 18  2  0
 16 19  1  0
M  END
