PCM-0102951
     RDKit          3D

 20 22  0  0  0  0  0  0  0  0999 V2000
   36.8520  -42.1260   75.5770 N   0  0  0  0  0  0  0  0  0  0  0  0
   38.0460  -43.4820   72.4220 C   0  0  0  0  0  0  0  0  0  0  0  0
   36.6490  -43.5630   77.2380 O   0  0  0  0  0  0  0  0  0  0  0  0
   38.4210  -44.5980   73.3830 C   0  0  0  0  0  0  0  0  0  0  0  0
   31.4240  -44.3860   72.9570 O   0  0  0  0  0  0  0  0  0  0  0  0
   37.6630  -44.3360   74.6530 C   0  0  0  0  0  0  0  0  0  0  0  0
   31.9470  -42.1010   74.4140 O   0  0  0  0  0  0  0  0  0  0  0  0
   36.8090  -43.0990   74.4730 C   0  0  2  0  0  0  0  0  0  0  0  0
   37.4140  -42.4030   73.2590 C   0  0  0  0  0  0  0  0  0  0  0  0
   36.7530  -42.4250   76.8710 C   0  0  0  0  0  0  0  0  0  0  0  0
   36.7670  -41.2830   77.8640 C   0  0  0  0  0  0  0  0  0  0  0  0
   35.3710  -43.4440   74.0950 C   0  0  0  0  0  0  0  0  0  0  0  0
   34.3020  -42.6050   74.4530 C   0  0  0  0  0  0  0  0  0  0  0  0
   32.9850  -42.9330   74.0660 C   0  0  0  0  0  0  0  0  0  0  0  0
   32.7140  -44.0790   73.3160 C   0  0  0  0  0  0  0  0  0  0  0  0
   33.7520  -44.9160   72.9660 C   0  0  0  0  0  0  0  0  0  0  0  0
   35.0560  -44.5930   73.3430 C   0  0  0  0  0  0  0  0  0  0  0  0
   30.3640  -43.8800   73.7840 C   0  0  0  0  0  0  0  0  0  0  0  0
   30.5570  -42.4520   74.2870 C   0  0  0  0  0  0  0  0  0  0  0  0
   37.8940  -39.9650   77.4640 R   0  0  0  0  0  0  0  0  0  0  0  0
  2  4  1  0
  4  6  1  0
  8  1  1  1
  6  8  1  0
  2  9  1  0
  8  9  1  0
  1 10  1  0
  3 10  2  0
 10 11  1  0
  8 12  1  0
 12 13  1  0
  7 14  1  0
 13 14  2  0
  5 15  1  0
 14 15  1  0
 15 16  2  0
 12 17  2  0
 16 17  1  0
  5 18  1  0
  7 19  1  0
 18 19  1  0
 11 20  1  0
M  END
