RK4-337
     RDKit          3D

 22 24  0  0  0  0  0  0  0  0999 V2000
   32.2810  -43.6480   75.3860 N   0  0  0  0  0  0  0  0  0  0  0  0
   33.2810  -43.4380   77.5810 C   0  0  0  0  0  0  0  0  0  0  0  0
   31.0410  -41.7320   75.3130 O   0  0  0  0  0  0  0  0  0  0  0  0
   32.2480  -42.3070   77.3500 C   0  0  0  0  0  0  0  0  0  0  0  0
   31.7540  -42.4740   75.9230 C   0  0  0  0  0  0  0  0  0  0  0  0
   33.1530  -44.3730   76.3310 C   0  0  0  0  0  0  0  0  0  0  0  0
   32.0100  -44.1140   74.0770 C   0  0  0  0  0  0  0  0  0  0  0  0
   30.7270  -44.3860   73.6420 C   0  0  0  0  0  0  0  0  0  0  0  0
   30.5530  -44.9210   72.3800 C   0  0  0  0  0  0  0  0  0  0  0  0
   31.6480  -45.1980   71.5690 C   0  0  0  0  0  0  0  0  0  0  0  0
   32.9150  -44.9160   72.0320 C   0  0  0  0  0  0  0  0  0  0  0  0
   33.0860  -44.3480   73.2620 C   0  0  0  0  0  0  0  0  0  0  0  0
   34.3800  -43.8320   73.6440 C   0  0  0  0  0  0  0  0  0  0  0  0
   34.4000  -42.4950   74.0380 C   0  0  0  0  0  0  0  0  0  0  0  0
   35.6000  -41.8560   74.2460 C   0  0  0  0  0  0  0  0  0  0  0  0
   36.7720  -42.5590   74.0820 C   0  0  0  0  0  0  0  0  0  0  0  0
   36.6990  -43.8850   73.7280 C   0  0  0  0  0  0  0  0  0  0  0  0
   35.5340  -44.5480   73.5120 C   0  0  0  0  0  0  0  0  0  0  0  0
   37.9450  -44.6000   73.4870 C   0  0  2  0  0  0  0  0  0  0  0  0
   37.8000  -45.9030   73.4050 F   0  0  0  0  0  0  0  0  0  0  0  0
   38.9670  -44.2980   74.3400 F   0  0  0  0  0  0  0  0  0  0  0  0
   38.4440  -44.2370   72.3980 F   0  0  0  0  0  0  0  0  0  0  0  0
  2  4  1  0
  1  5  1  0
  3  5  2  0
  4  5  1  0
  1  6  1  0
  2  6  2  0
  1  7  1  0
  7  8  2  0
  8  9  1  0
  9 10  2  0
 10 11  1  0
  7 12  1  0
 11 12  2  0
 12 13  1  0
 13 14  2  0
 14 15  1  0
 15 16  2  0
 16 17  1  0
 13 18  1  0
 17 18  2  0
 17 19  1  0
 19 20  1  6
 19 21  1  0
 19 22  1  0
M  END
