LIG
     RDKit          3D

 46 48  0  0  0  0  0  0  0  0999 V2000
   37.9680  -39.8150   77.5640 R   0  0  0  0  0  1  0  0  0  0  0  0
   36.5640  -40.6060   78.1470 C   0  0  0  0  0  0  0  0  0  0  0  0
   36.2120  -41.7110   77.4200 C   0  0  0  0  0  0  0  0  0  0  0  0
   36.6389  -42.8563   77.8318 O   0  0  0  0  0  0  0  0  0  0  0  0
   35.4580  -41.6890   76.3230 N   0  0  0  0  0  0  0  0  0  0  0  0
   35.1910  -40.5150   75.5000 C   0  0  0  0  0  0  0  0  0  0  0  0
   34.4120  -41.0430   74.2970 C   0  0  0  0  0  0  0  0  0  0  0  0
   33.8150  -42.3510   74.7620 C   0  0  0  0  0  0  0  0  0  0  0  0
   35.0975  -42.8423   75.7130 C   0  0  1  0  0  0  0  0  0  0  0  0
   36.7000  -43.8590   76.1550 C   0  0  0  0  0  0  0  0  0  0  0  0
   35.7050  -44.5040   75.4370 C   0  0  0  0  0  0  0  0  0  0  0  0
   36.0030  -45.0820   74.2130 C   0  0  0  0  0  0  0  0  0  0  0  0
   37.2790  -44.9820   73.6780 C   0  0  0  0  0  0  0  0  0  0  0  0
   38.2720  -44.3220   74.3850 C   0  0  0  0  0  0  0  0  0  0  0  0
   39.6610  -44.1920   73.8310 C   0  0  0  0  0  0  0  0  0  0  0  0
   39.8590  -42.8160   73.2530 C   0  0  0  0  0  0  0  0  0  0  0  0
   39.1500  -42.4350   72.3320 O   0  0  0  0  0  0  0  0  0  0  0  0
   40.8670  -42.0830   73.7960 N   0  0  0  0  0  0  0  0  0  0  0  0
   41.3320  -40.8200   73.3610 C   0  0  0  0  0  0  0  0  0  0  0  0
   42.0590  -40.0430   74.2560 C   0  0  0  0  0  0  0  0  0  0  0  0
   42.5190  -38.8020   73.8670 C   0  0  0  0  0  0  0  0  0  0  0  0
   42.2720  -38.3210   72.5960 C   0  0  0  0  0  0  0  0  0  0  0  0
   41.5730  -39.1130   71.7180 C   0  0  0  0  0  0  0  0  0  0  0  0
   41.2500  -38.5470   70.1030 Cl  0  0  0  0  0  0  0  0  0  0  0  0
   41.0940  -40.3510   72.0740 C   0  0  0  0  0  0  0  0  0  0  0  0
   37.9710  -43.7620   75.6170 C   0  0  0  0  0  0  0  0  0  0  0  0
   37.1762  -40.5692   79.1256 H   0  0  0  0  0  0  0  0  0  0  0  0
   36.1006  -39.5636   78.0368 H   0  0  0  0  0  0  0  0  0  0  0  0
   34.5300  -39.8417   76.1364 H   0  0  0  0  0  0  0  0  0  0  0  0
   36.1144  -39.9632   75.2009 H   0  0  0  0  0  0  0  0  0  0  0  0
   35.1707  -41.2642   73.5054 H   0  0  0  0  0  0  0  0  0  0  0  0
   33.6486  -40.3224   73.9327 H   0  0  0  0  0  0  0  0  0  0  0  0
   34.3441  -43.1700   74.2432 H   0  0  0  0  0  0  0  0  0  0  0  0
   33.9000  -42.4954   75.8558 H   0  0  0  0  0  0  0  0  0  0  0  0
   34.2306  -43.3211   76.2142 H   0  0  0  0  0  0  0  0  0  0  0  0
   34.6951  -44.5609   75.8165 H   0  0  0  0  0  0  0  0  0  0  0  0
   35.2376  -45.6252   73.6521 H   0  0  0  0  0  0  0  0  0  0  0  0
   37.5218  -45.4142   72.7057 H   0  0  0  0  0  0  0  0  0  0  0  0
   39.8481  -44.9866   73.0582 H   0  0  0  0  0  0  0  0  0  0  0  0
   40.4177  -44.3292   74.6480 H   0  0  0  0  0  0  0  0  0  0  0  0
   41.4067  -42.4767   74.6741 H   0  0  0  0  0  0  0  0  0  0  0  0
   42.2653  -40.4011   75.2446 H   0  0  0  0  0  0  0  0  0  0  0  0
   43.0861  -38.2098   74.5909 H   0  0  0  0  0  0  0  0  0  0  0  0
   42.6337  -37.3270   72.3066 H   0  0  0  0  0  0  0  0  0  0  0  0
   40.5497  -40.9200   71.3830 H   0  0  0  0  0  0  0  0  0  0  0  0
   38.7262  -43.2477   76.1600 H   0  0  0  0  0  0  0  0  0  0  0  0
  1  2  1  0
  2  3  1  0
  3  4  2  0
  3  5  1  0
  5  6  1  0
  6  7  1  0
  7  8  1  0
  8  9  1  0
  9 10  1  0
 10 11  4  0
 11 12  4  0
 12 13  4  0
 13 14  4  0
 14 15  1  0
 15 16  1  0
 16 17  2  0
 16 18  1  0
 18 19  1  0
 19 20  4  0
 20 21  4  0
 21 22  4  0
 22 23  4  0
 23 24  1  0
 23 25  4  0
 14 26  4  0
  9  5  1  0
 26 10  4  0
 25 19  4  0
  2 27  1  0
  2 28  1  0
  6 29  1  0
  6 30  1  0
  7 31  1  0
  7 32  1  0
  8 33  1  0
  8 34  1  0
  9 35  1  1
 11 36  1  0
 12 37  1  0
 13 38  1  0
 15 39  1  0
 15 40  1  0
 18 41  1  0
 20 42  1  0
 21 43  1  0
 22 44  1  0
 25 45  1  0
 26 46  1  0
M  END
$$$$
