LIG
     RDKit          3D

 46 48  0  0  0  0  0  0  0  0999 V2000
   -2.7996    0.7543    3.2725 R   0  0  0  0  0  1  0  0  0  0  0  0
   -1.9377   -0.5491    3.2675 C   0  0  0  0  0  0  0  0  0  0  0  0
   -1.5377   -1.0571    1.8745 C   0  0  0  0  0  0  0  0  0  0  0  0
   -0.3422   -1.2196    1.5955 O   0  0  0  0  0  0  0  0  0  0  0  0
   -2.5364   -1.3993    0.9766 N   0  0  0  0  0  0  0  0  0  0  0  0
   -3.9582   -1.5130    1.2503 C   0  0  0  0  0  0  0  0  0  0  0  0
   -4.4199   -2.6105    0.3080 C   0  0  0  0  0  0  0  0  0  0  0  0
   -3.5610   -2.3910   -0.9324 C   0  0  0  0  0  0  0  0  0  0  0  0
   -2.2247   -1.8685   -0.3736 C   0  0  1  0  0  0  0  0  0  0  0  0
   -1.6020   -0.7783   -1.2256 C   0  0  0  0  0  0  0  0  0  0  0  0
   -2.2981    0.3977   -1.5550 C   0  0  0  0  0  0  0  0  0  0  0  0
   -1.6846    1.4083   -2.2934 C   0  0  0  0  0  0  0  0  0  0  0  0
   -0.3569    1.2709   -2.6935 C   0  0  0  0  0  0  0  0  0  0  0  0
    0.3644    0.1164   -2.3668 C   0  0  0  0  0  0  0  0  0  0  0  0
    1.8196   -0.0047   -2.7422 C   0  0  0  0  0  0  0  0  0  0  0  0
    2.7259    0.9378   -1.9626 C   0  0  0  0  0  0  0  0  0  0  0  0
    3.4501    1.7323   -2.5552 O   0  0  0  0  0  0  0  0  0  0  0  0
    2.6820    0.7311   -0.5936 N   0  0  0  0  0  0  0  0  0  0  0  0
    3.4630    1.3622    0.3961 C   0  0  0  0  0  0  0  0  0  0  0  0
    3.3267    0.8849    1.7110 C   0  0  0  0  0  0  0  0  0  0  0  0
    4.0899    1.4251    2.7497 C   0  0  0  0  0  0  0  0  0  0  0  0
    4.9924    2.4558    2.4817 C   0  0  0  0  0  0  0  0  0  0  0  0
    5.1183    2.9408    1.1823 C   0  0  0  0  0  0  0  0  0  0  0  0
    6.2331    4.2151    0.8570 Cl  0  0  0  0  0  0  0  0  0  0  0  0
    4.3600    2.4020    0.1406 C   0  0  0  0  0  0  0  0  0  0  0  0
   -0.2686   -0.9068   -1.6467 C   0  0  0  0  0  0  0  0  0  0  0  0
   -1.0116   -0.3622    3.8268 H   0  0  0  0  0  0  0  0  0  0  0  0
   -2.4597   -1.3579    3.7897 H   0  0  0  0  0  0  0  0  0  0  0  0
   -4.4247   -0.5559    0.9987 H   0  0  0  0  0  0  0  0  0  0  0  0
   -4.1636   -1.7579    2.2908 H   0  0  0  0  0  0  0  0  0  0  0  0
   -5.4891   -2.5656    0.0957 H   0  0  0  0  0  0  0  0  0  0  0  0
   -4.1997   -3.5955    0.7440 H   0  0  0  0  0  0  0  0  0  0  0  0
   -3.4252   -3.3177   -1.5039 H   0  0  0  0  0  0  0  0  0  0  0  0
   -4.0567   -1.6723   -1.5986 H   0  0  0  0  0  0  0  0  0  0  0  0
   -1.5318   -2.7111   -0.2664 H   0  0  0  0  0  0  0  0  0  0  0  0
   -3.3245    0.5470   -1.2218 H   0  0  0  0  0  0  0  0  0  0  0  0
   -2.2355    2.3134   -2.5413 H   0  0  0  0  0  0  0  0  0  0  0  0
    0.1156    2.0772   -3.2462 H   0  0  0  0  0  0  0  0  0  0  0  0
    1.9327    0.1982   -3.8142 H   0  0  0  0  0  0  0  0  0  0  0  0
    2.1803   -1.0278   -2.5837 H   0  0  0  0  0  0  0  0  0  0  0  0
    2.0040    0.0577   -0.2600 H   0  0  0  0  0  0  0  0  0  0  0  0
    2.6396    0.0700    1.9365 H   0  0  0  0  0  0  0  0  0  0  0  0
    3.9906    1.0330    3.7621 H   0  0  0  0  0  0  0  0  0  0  0  0
    5.5921    2.8725    3.2866 H   0  0  0  0  0  0  0  0  0  0  0  0
    4.4758    2.8204   -0.8539 H   0  0  0  0  0  0  0  0  0  0  0  0
    0.2934   -1.8019   -1.3765 H   0  0  0  0  0  0  0  0  0  0  0  0
  1  2  1  0
  2  3  1  0
  3  4  2  0
  3  5  1  0
  5  6  1  0
  6  7  1  0
  7  8  1  0
  8  9  1  0
  9 10  1  0
 10 11  2  0
 11 12  1  0
 12 13  2  0
 13 14  1  0
 14 15  1  0
 15 16  1  0
 16 17  2  0
 16 18  1  0
 18 19  1  0
 19 20  2  0
 20 21  1  0
 21 22  2  0
 22 23  1  0
 23 24  1  0
 23 25  2  0
 14 26  2  0
  9  5  1  0
 26 10  1  0
 25 19  1  0
  2 27  1  0
  2 28  1  0
  6 29  1  0
  6 30  1  0
  7 31  1  0
  7 32  1  0
  8 33  1  0
  8 34  1  0
  9 35  1  1
 11 36  1  0
 12 37  1  0
 13 38  1  0
 15 39  1  0
 15 40  1  0
 18 41  1  0
 20 42  1  0
 21 43  1  0
 22 44  1  0
 25 45  1  0
 26 46  1  0
M  END
