PCM-0102716
     RDKit          3D

 17 18  0  0  0  0  0  0  0  0999 V2000
   35.4540  -41.6930   76.3210 N   0  0  0  0  0  0  0  0  0  0  0  0
   36.5600  -40.6100   78.1440 C   0  0  0  0  0  0  0  0  0  0  0  0
   36.8170  -42.8810   77.7020 O   0  0  0  0  0  0  0  0  0  0  0  0
   36.2080  -41.7150   77.4180 C   0  0  0  0  0  0  0  0  0  0  0  0
   39.0940  -43.7500   73.3090 O   0  0  0  0  0  0  0  0  0  0  0  0
   35.1870  -40.5190   75.4980 C   0  0  0  0  0  0  0  0  0  0  0  0
   34.4080  -41.0470   74.2940 C   0  0  0  0  0  0  0  0  0  0  0  0
   33.8110  -42.3550   74.7600 C   0  0  0  0  0  0  0  0  0  0  0  0
   34.8540  -42.9170   75.7240 C   0  0  1  0  0  0  0  0  0  0  0  0
   35.7850  -43.7800   74.9220 C   0  0  0  0  0  0  0  0  0  0  0  0
   35.4030  -45.0820   74.5670 C   0  0  0  0  0  0  0  0  0  0  0  0
   36.2320  -45.9040   73.7990 C   0  0  0  0  0  0  0  0  0  0  0  0
   37.4780  -45.4700   73.3730 C   0  0  0  0  0  0  0  0  0  0  0  0
   37.8700  -44.1810   73.7150 C   0  0  0  0  0  0  0  0  0  0  0  0
   39.9290  -43.1490   74.2800 C   0  0  0  0  0  0  0  0  0  0  0  0
   37.0360  -43.3340   74.4830 C   0  0  0  0  0  0  0  0  0  0  0  0
   37.9640  -39.8180   77.5610 R   0  0  0  0  0  0  0  0  0  0  0  0
  1  4  1  0
  2  4  1  0
  3  4  2  0
  1  6  1  0
  6  7  1  0
  7  8  1  0
  1  9  1  0
  8  9  1  0
  9 10  1  6
 10 11  4  0
 11 12  4  0
 12 13  4  0
  5 14  1  0
 13 14  4  0
  5 15  1  0
 10 16  4  0
 14 16  4  0
  2 17  1  0
M  END
