
     RDKit          3D

 46 48  0  0  0  0  0  0  0  0999 V2000
   36.7360  -40.6840   78.0270 C   0  0  0  0  0  0  0  0  0  0  0  0
   35.8730  -41.8400   77.5590 C   0  0  0  0  0  0  0  0  0  0  0  0
   35.9670  -42.9470   78.0940 O   0  0  0  0  0  0  0  0  0  0  0  0
   35.0110  -41.5880   76.5250 N   0  0  0  0  0  0  0  0  0  0  0  0
   34.3070  -40.3210   76.3410 C   0  0  0  0  0  0  0  0  0  0  0  0
   35.3810  -41.9240   75.1860 C   0  0  2  0  0  0  0  0  0  0  0  0
   33.7230  -40.3730   74.9220 C   0  0  0  0  0  0  0  0  0  0  0  0
   34.0480  -41.7780   74.4750 C   0  0  0  0  0  0  0  0  0  0  0  0
   36.0360  -43.2120   74.8520 C   0  0  0  0  0  0  0  0  0  0  0  0
   35.3580  -44.4210   74.7040 C   0  0  0  0  0  0  0  0  0  0  0  0
   37.3860  -43.1610   74.6430 C   0  0  0  0  0  0  0  0  0  0  0  0
   36.0540  -45.5490   74.3150 C   0  0  0  0  0  0  0  0  0  0  0  0
   38.0720  -44.2690   74.2690 C   0  0  0  0  0  0  0  0  0  0  0  0
   37.4150  -45.4840   74.0910 C   0  0  0  0  0  0  0  0  0  0  0  0
   39.5060  -44.0800   74.0580 C   0  0  0  0  0  0  0  0  0  0  0  0
   39.7430  -42.7820   73.3280 C   0  0  0  0  0  0  0  0  0  0  0  0
   39.1170  -42.5380   72.2950 O   0  0  0  0  0  0  0  0  0  0  0  0
   40.6650  -41.9670   73.9370 N   0  0  0  0  0  0  0  0  0  0  0  0
   41.0840  -40.7240   73.4490 C   0  0  0  0  0  0  0  0  0  0  0  0
   41.6920  -39.8310   74.3420 C   0  0  0  0  0  0  0  0  0  0  0  0
   40.9090  -40.3580   72.1240 C   0  0  0  0  0  0  0  0  0  0  0  0
   42.1280  -38.5780   73.8990 C   0  0  0  0  0  0  0  0  0  0  0  0
   41.3330  -39.1160   71.6860 C   0  0  0  0  0  0  0  0  0  0  0  0
   41.9420  -38.2280   72.5630 C   0  0  0  0  0  0  0  0  0  0  0  0
   41.0770  -38.7090   70.0340 Cl  0  0  0  0  0  0  0  0  0  0  0  0
   36.8640  -40.7700   79.1140 H   0  0  0  0  0  0  0  0  0  0  0  0
   36.2160  -39.7400   77.8360 H   0  0  0  0  0  0  0  0  0  0  0  0
   33.5090  -40.2700   77.0880 H   0  0  0  0  0  0  0  0  0  0  0  0
   34.9700  -39.4670   76.4660 H   0  0  0  0  0  0  0  0  0  0  0  0
   36.0260  -41.1050   74.8520 H   0  0  0  0  0  0  0  0  0  0  0  0
   32.6550  -40.1520   74.8890 H   0  0  0  0  0  0  0  0  0  0  0  0
   34.2400  -39.6460   74.2770 H   0  0  0  0  0  0  0  0  0  0  0  0
   34.1370  -41.8690   73.3860 H   0  0  0  0  0  0  0  0  0  0  0  0
   33.2790  -42.4790   74.8190 H   0  0  0  0  0  0  0  0  0  0  0  0
   34.2890  -44.4890   74.8780 H   0  0  0  0  0  0  0  0  0  0  0  0
   37.9150  -42.2160   74.7660 H   0  0  0  0  0  0  0  0  0  0  0  0
   35.5320  -46.4740   74.1810 H   0  0  0  0  0  0  0  0  0  0  0  0
   37.9510  -46.3730   73.7790 H   0  0  0  0  0  0  0  0  0  0  0  0
   39.8730  -44.9170   73.4800 H   0  0  0  0  0  0  0  0  0  0  0  0
   40.0600  -44.0580   74.9980 H   0  0  0  0  0  0  0  0  0  0  0  0
   41.1690  -42.3500   74.7410 H   0  0  0  0  0  0  0  0  0  0  0  0
   41.8370  -40.1010   75.3860 H   0  0  0  0  0  0  0  0  0  0  0  0
   40.4400  -41.0270   71.4090 H   0  0  0  0  0  0  0  0  0  0  0  0
   42.6050  -37.8840   74.5930 H   0  0  0  0  0  0  0  0  0  0  0  0
   42.2700  -37.2690   72.2150 H   0  0  0  0  0  0  0  0  0  0  0  0
   38.1210  -40.7120   77.3380 R   0  0  0  0  0  0  0  0  0  0  0  0
  1  2  1  0
  2  3  2  0
  2  4  1  0
  4  5  1  0
  4  6  1  0
  5  7  1  0
  6  8  1  0
  7  8  1  0
  6  9  1  0
  9 10  2  0
  9 11  1  0
 10 12  1  0
 11 13  2  0
 12 14  2  0
 13 14  1  0
 13 15  1  0
 15 16  1  0
 16 17  2  0
 16 18  1  0
 18 19  1  0
 19 20  2  0
 19 21  1  0
 20 22  1  0
 21 23  2  0
 22 24  2  0
 23 24  1  0
 23 25  1  0
  1 26  1  0
  1 27  1  0
  5 28  1  0
  5 29  1  0
  6 30  1  6
  7 31  1  0
  7 32  1  0
  8 33  1  0
  8 34  1  0
 10 35  1  0
 11 36  1  0
 12 37  1  0
 14 38  1  0
 15 39  1  0
 15 40  1  0
 18 41  1  0
 20 42  1  0
 21 43  1  0
 22 44  1  0
 24 45  1  0
  1 46  1  0
M  END
