
     RDKit          3D

 51 53  0  0  0  0  0  0  0  0999 V2000
    8.7160   -5.3840   27.3950 O   0  0  0  0  0  0  0  0  0  0  0  0
    8.2660   -4.2750   26.6180 C   0  0  1  0  0  0  0  0  0  0  0  0
    9.1970   -4.1310   25.5100 N   0  0  0  0  0  0  0  0  0  0  0  0
    6.8100   -4.5580   26.2020 C   0  0  2  0  0  0  0  0  0  0  0  0
    6.7240   -5.7590   25.4340 O   0  0  0  0  0  0  0  0  0  0  0  0
    9.4130   -5.4280   24.8920 C   0  0  2  0  0  0  0  0  0  0  0  0
    9.0180   -3.0190   24.5720 C   0  0  1  0  0  0  0  0  0  0  0  0
    7.0150   -5.6230   24.0450 C   0  0  1  0  0  0  0  0  0  0  0  0
    8.4890   -5.7740   23.7140 C   0  0  2  0  0  0  0  0  0  0  0  0
    8.6040   -1.6140   25.0490 C   0  0  2  0  0  0  0  0  0  0  0  0
   10.2440   -2.8300   23.6870 C   0  0  1  0  0  0  0  0  0  0  0  0
    7.8750   -3.4340   23.7980 N   0  0  0  0  0  0  0  0  0  0  0  0
   10.4940   -1.3910   23.1860 C   0  0  2  0  0  0  0  0  0  0  0  0
    8.1800   -0.6750   23.9090 C   0  0  2  0  0  0  0  0  0  0  0  0
   11.4910   -1.6720   22.0390 C   0  0  1  0  0  0  0  0  0  0  0  0
   11.1150   -0.4720   24.2740 C   0  0  1  0  0  0  0  0  0  0  0  0
    9.1520   -0.7560   22.7220 C   0  0  1  0  0  0  0  0  0  0  0  0
    9.2730    0.6110   22.1540 C   0  0  0  0  0  0  0  0  0  0  0  0
   12.9730   -1.3560   22.2430 C   0  0  1  0  0  0  0  0  0  0  0  0
   12.0620    0.5200   23.6570 C   0  0  2  0  0  0  0  0  0  0  0  0
    9.3040    1.6910   21.7360 N   0  0  0  0  0  0  0  0  0  0  0  0
   13.2180   -0.2390   23.0960 C   0  0  1  0  0  0  0  0  0  0  0  0
    9.2510   -5.9520   26.8040 H   0  0  0  0  0  0  0  0  0  0  0  0
    8.2550   -3.3880   27.2550 H   0  0  0  0  0  0  0  0  0  0  0  0
    6.3390   -3.7140   25.6860 H   0  0  0  0  0  0  0  0  0  0  0  0
    6.2060   -4.7310   27.1020 H   0  0  0  0  0  0  0  0  0  0  0  0
    9.2950   -6.1900   25.6650 H   0  0  0  0  0  0  0  0  0  0  0  0
   10.4380   -5.5820   24.5970 H   0  0  0  0  0  0  0  0  0  0  0  0
    6.4170   -6.3480   23.4780 H   0  0  0  0  0  0  0  0  0  0  0  0
    6.6640   -4.6340   23.7380 H   0  0  0  0  0  0  0  0  0  0  0  0
    8.7010   -6.7790   23.3390 H   0  0  0  0  0  0  0  0  0  0  0  0
    8.7100   -5.0800   22.8980 H   0  0  0  0  0  0  0  0  0  0  0  0
    9.4520   -1.1400   25.5270 H   0  0  0  0  0  0  0  0  0  0  0  0
    7.7940   -1.6630   25.7810 H   0  0  0  0  0  0  0  0  0  0  0  0
   11.1270   -3.1670   24.2490 H   0  0  0  0  0  0  0  0  0  0  0  0
   10.1800   -3.4770   22.8010 H   0  0  0  0  0  0  0  0  0  0  0  0
    7.2530   -2.6150   23.7720 H   0  0  0  0  0  0  0  0  0  0  0  0
    8.2020   -3.4760   22.8280 H   0  0  0  0  0  0  0  0  0  0  0  0
    8.1110    0.3560   24.2750 H   0  0  0  0  0  0  0  0  0  0  0  0
    7.1660   -0.9480   23.5870 H   0  0  0  0  0  0  0  0  0  0  0  0
   11.4330   -2.7420   21.8220 H   0  0  0  0  0  0  0  0  0  0  0  0
   11.1210   -1.2220   21.1330 H   0  0  0  0  0  0  0  0  0  0  0  0
   10.3220    0.0870   24.7870 H   0  0  0  0  0  0  0  0  0  0  0  0
   11.6580   -1.0290   25.0390 H   0  0  0  0  0  0  0  0  0  0  0  0
    8.6850   -1.3760   21.9430 H   0  0  0  0  0  0  0  0  0  0  0  0
   13.4600   -2.2390   22.6860 H   0  0  0  0  0  0  0  0  0  0  0  0
   13.4650   -1.1970   21.2730 H   0  0  0  0  0  0  0  0  0  0  0  0
   12.3910    1.2550   24.3850 H   0  0  0  0  0  0  0  0  0  0  0  0
   11.5600    1.0740   22.8570 H   0  0  0  0  0  0  0  0  0  0  0  0
   13.7740   -0.6250   23.9490 H   0  0  0  0  0  0  0  0  0  0  0  0
   13.8840    0.4630   22.5860 H   0  0  0  0  0  0  0  0  0  0  0  0
  1  2  1  0
  2  3  1  0
  2  4  1  0
  4  5  1  0
  3  6  1  0
  3  7  1  0
  5  8  1  0
  6  9  1  0
  8  9  1  0
  7 10  1  0
  7 11  1  0
  7 12  1  6
 11 13  1  0
 10 14  1  0
 13 15  1  0
 13 16  1  0
 13 17  1  6
 14 17  1  0
 17 18  1  0
 15 19  1  0
 16 20  1  0
 18 21  3  0
 19 22  1  0
 20 22  1  0
  1 23  1  0
  2 24  1  1
  4 25  1  6
  4 26  1  0
  6 27  1  1
  6 28  1  0
  8 29  1  6
  8 30  1  0
  9 31  1  6
  9 32  1  0
 10 33  1  1
 10 34  1  0
 11 35  1  1
 11 36  1  0
 12 37  1  0
 12 38  1  0
 14 39  1  1
 14 40  1  0
 15 41  1  6
 15 42  1  0
 16 43  1  1
 16 44  1  0
 17 45  1  6
 19 46  1  1
 19 47  1  0
 20 48  1  1
 20 49  1  0
 22 50  1  1
 22 51  1  0
M  END
