
     RDKit          3D

 47 48  0  0  0  0  0  0  0  0999 V2000
    6.5390   -5.3970   26.5640 C   0  0  1  0  0  0  0  0  0  0  0  0
    8.0770   -4.5610   26.2440 S   0  0  2  0  0  0  0  0  0  0  0  0
    9.1170   -5.5470   26.0660 O   0  0  0  0  0  0  0  0  0  0  0  0
    8.1890   -3.4850   27.1940 O   0  0  0  0  0  0  0  0  0  0  0  0
    7.8340   -3.8760   24.7260 N   0  0  0  0  0  0  0  0  0  0  0  0
    8.9900   -3.3600   23.9710 C   0  0  1  0  0  0  0  0  0  0  0  0
    8.8180   -1.8580   23.7230 C   0  0  1  0  0  0  0  0  0  0  0  0
   10.1250   -1.1310   23.5450 C   0  0  0  0  0  0  0  0  0  0  0  0
   11.1010   -1.7270   22.5530 C   0  0  0  0  0  0  0  0  0  0  0  0
   10.4790    0.0420   24.2310 C   0  0  0  0  0  0  0  0  0  0  0  0
    9.5700    0.7140   25.2180 C   0  0  2  0  0  0  0  0  0  0  0  0
   12.2890   -1.0490   22.4070 C   0  0  0  0  0  0  0  0  0  0  0  0
   11.7300    0.6330   23.9930 C   0  0  0  0  0  0  0  0  0  0  0  0
    8.1770    0.5240   24.9190 N   0  0  0  0  0  0  0  0  0  0  0  0
   13.1480   -1.5810   21.4900 C   0  0  0  0  0  0  0  0  0  0  0  0
   12.6260    0.0970   23.0980 C   0  0  0  0  0  0  0  0  0  0  0  0
    7.5490    1.4060   24.0840 C   0  0  0  0  0  0  0  0  0  0  0  0
   13.7490   -1.9710   20.6590 N   0  0  0  0  0  0  0  0  0  0  0  0
    8.1220    2.3530   23.5520 O   0  0  0  0  0  0  0  0  0  0  0  0
    6.2050    1.1170   23.9050 N   0  0  0  0  0  0  0  0  0  0  0  0
    5.5540    1.6780   22.7150 C   0  0  2  0  0  0  0  0  0  0  0  0
    5.3040    0.9180   25.0490 C   0  0  1  0  0  0  0  0  0  0  0  0
    4.2110    0.9990   22.4210 C   0  0  2  0  0  0  0  0  0  0  0  0
    3.9750    0.2760   24.6370 C   0  0  2  0  0  0  0  0  0  0  0  0
    3.3600    1.0220   23.5750 O   0  0  0  0  0  0  0  0  0  0  0  0
    5.9050   -4.7490   27.1780 H   0  0  0  0  0  0  0  0  0  0  0  0
    6.0230   -5.6100   25.6210 H   0  0  0  0  0  0  0  0  0  0  0  0
    6.7160   -6.3420   27.0890 H   0  0  0  0  0  0  0  0  0  0  0  0
    6.9880   -3.2980   24.6830 H   0  0  0  0  0  0  0  0  0  0  0  0
    9.9290   -3.5610   24.4970 H   0  0  0  0  0  0  0  0  0  0  0  0
    9.0460   -3.8450   22.9920 H   0  0  0  0  0  0  0  0  0  0  0  0
    8.2120   -1.7100   22.8190 H   0  0  0  0  0  0  0  0  0  0  0  0
    8.2250   -1.4470   24.5420 H   0  0  0  0  0  0  0  0  0  0  0  0
   10.8790   -2.6330   21.9850 H   0  0  0  0  0  0  0  0  0  0  0  0
    9.7590    1.7890   25.2220 H   0  0  0  0  0  0  0  0  0  0  0  0
    9.7700    0.3580   26.2350 H   0  0  0  0  0  0  0  0  0  0  0  0
   12.0080    1.5340   24.5120 H   0  0  0  0  0  0  0  0  0  0  0  0
    7.8750   -0.4270   24.7790 H   0  0  0  0  0  0  0  0  0  0  0  0
   13.5840    0.5860   22.9370 H   0  0  0  0  0  0  0  0  0  0  0  0
    6.2430    1.5240   21.8770 H   0  0  0  0  0  0  0  0  0  0  0  0
    5.4060    2.7570   22.8400 H   0  0  0  0  0  0  0  0  0  0  0  0
    5.8350    0.2520   25.7410 H   0  0  0  0  0  0  0  0  0  0  0  0
    5.1220    1.8540   25.5820 H   0  0  0  0  0  0  0  0  0  0  0  0
    4.3530   -0.0410   22.1010 H   0  0  0  0  0  0  0  0  0  0  0  0
    3.6940    1.5270   21.6150 H   0  0  0  0  0  0  0  0  0  0  0  0
    3.2770    0.2220   25.4790 H   0  0  0  0  0  0  0  0  0  0  0  0
    4.1470   -0.7430   24.2720 H   0  0  0  0  0  0  0  0  0  0  0  0
  1  2  1  0
  2  3  2  0
  2  4  2  0
  2  5  1  6
  5  6  1  0
  6  7  1  0
  7  8  1  0
  8  9  2  0
  8 10  1  0
 10 11  1  0
  9 12  1  0
 10 13  2  0
 11 14  1  0
 12 15  1  0
 12 16  2  0
 13 16  1  0
 14 17  1  0
 15 18  3  0
 17 19  2  0
 17 20  1  0
 20 21  1  0
 20 22  1  0
 21 23  1  0
 22 24  1  0
 23 25  1  0
 24 25  1  0
  1 26  1  1
  1 27  1  0
  1 28  1  0
  5 29  1  0
  6 30  1  1
  6 31  1  0
  7 32  1  6
  7 33  1  0
  9 34  1  0
 11 35  1  1
 11 36  1  0
 13 37  1  0
 14 38  1  0
 16 39  1  0
 21 40  1  6
 21 41  1  0
 22 42  1  1
 22 43  1  0
 23 44  1  6
 23 45  1  0
 24 46  1  1
 24 47  1  0
M  END
