
     RDKit          3D

 38 40  0  0  0  0  0  0  0  0999 V2000
    9.6350   -1.3190   22.1090 C   0  0  1  0  0  0  0  0  0  0  0  0
    8.6690   -0.3340   21.4890 C   0  0  0  0  0  0  0  0  0  0  0  0
    8.9630    0.8720   21.4870 O   0  0  0  0  0  0  0  0  0  0  0  0
    7.4750   -0.8260   20.9370 N   0  0  0  0  0  0  0  0  0  0  0  0
    7.4400   -2.0940   20.2180 N   0  0  0  0  0  0  0  0  0  0  0  0
    6.5740   -0.0180   20.2040 C   0  0  0  0  0  0  0  0  0  0  0  0
    7.3450   -1.6800   18.7980 C   0  0  1  0  0  0  0  0  0  0  0  0
    6.5520   -3.1140   20.5840 C   0  0  0  0  0  0  0  0  0  0  0  0
    5.7870    1.0710   20.5200 C   0  0  0  0  0  0  0  0  0  0  0  0
    6.5230   -0.4770   18.8990 C   0  0  0  0  0  0  0  0  0  0  0  0
    5.7170    1.6540   21.8960 C   0  0  1  0  0  0  0  0  0  0  0  0
    5.6620   -3.5050   19.8230 O   0  0  0  0  0  0  0  0  0  0  0  0
    6.7050   -3.6480   21.8390 N   0  0  0  0  0  0  0  0  0  0  0  0
    5.0210    1.6300   19.4620 C   0  0  0  0  0  0  0  0  0  0  0  0
    5.8460    0.0280   17.8750 N   0  0  0  0  0  0  0  0  0  0  0  0
    4.1140    2.8020   19.6410 C   0  0  1  0  0  0  0  0  0  0  0  0
    5.1040    1.0810   18.1850 C   0  0  0  0  0  0  0  0  0  0  0  0
    5.7350   -4.5180   22.4380 C   0  0  2  0  0  0  0  0  0  0  0  0
    6.1480   -5.4940   23.5050 C   0  0  1  0  0  0  0  0  0  0  0  0
    5.7800   -5.9920   22.1380 C   0  0  2  0  0  0  0  0  0  0  0  0
    9.4860   -1.3100   23.1950 H   0  0  0  0  0  0  0  0  0  0  0  0
    9.4360   -2.3280   21.7390 H   0  0  0  0  0  0  0  0  0  0  0  0
   10.6770   -1.0480   21.9180 H   0  0  0  0  0  0  0  0  0  0  0  0
    8.2830   -1.4360   18.3620 H   0  0  0  0  0  0  0  0  0  0  0  0
    6.8330   -2.4400   18.1980 H   0  0  0  0  0  0  0  0  0  0  0  0
    6.3440    1.1000   22.6000 H   0  0  0  0  0  0  0  0  0  0  0  0
    6.0450    2.6970   21.8920 H   0  0  0  0  0  0  0  0  0  0  0  0
    4.7080    1.5730   22.3090 H   0  0  0  0  0  0  0  0  0  0  0  0
    7.2700   -3.0810   22.4760 H   0  0  0  0  0  0  0  0  0  0  0  0
    3.3050    2.5770   20.3470 H   0  0  0  0  0  0  0  0  0  0  0  0
    4.6760    3.6620   20.0230 H   0  0  0  0  0  0  0  0  0  0  0  0
    3.6380    3.0650   18.6910 H   0  0  0  0  0  0  0  0  0  0  0  0
    4.5450    1.4960   17.3580 H   0  0  0  0  0  0  0  0  0  0  0  0
    4.7480   -4.0640   22.5340 H   0  0  0  0  0  0  0  0  0  0  0  0
    7.1870   -5.5180   23.8030 H   0  0  0  0  0  0  0  0  0  0  0  0
    5.4520   -5.6740   24.3140 H   0  0  0  0  0  0  0  0  0  0  0  0
    6.5690   -6.3670   21.5020 H   0  0  0  0  0  0  0  0  0  0  0  0
    4.8380   -6.5180   22.0330 H   0  0  0  0  0  0  0  0  0  0  0  0
  1  2  1  0
  2  3  2  0
  2  4  1  0
  4  5  1  0
  4  6  1  0
  5  7  1  0
  5  8  1  0
  6  9  1  0
  6 10  2  0
  7 10  1  0
  9 11  1  0
  8 12  2  0
  8 13  1  0
  9 14  2  0
 10 15  1  0
 14 16  1  0
 14 17  1  0
 15 17  2  0
 13 18  1  0
 18 19  1  0
 18 20  1  0
 19 20  1  0
  1 21  1  1
  1 22  1  0
  1 23  1  0
  7 24  1  6
  7 25  1  0
 11 26  1  1
 11 27  1  0
 11 28  1  0
 13 29  1  0
 16 30  1  1
 16 31  1  0
 16 32  1  0
 17 33  1  0
 18 34  1  1
 19 35  1  1
 19 36  1  0
 20 37  1  6
 20 38  1  0
M  END
