
     RDKit          3D

 31 32  0  0  0  0  0  0  0  0999 V2000
    9.0640    6.6430   22.5100 C   0  0  1  0  0  0  0  0  0  0  0  0
   10.2440    6.1280   23.3690 C   0  0  0  0  0  0  0  0  0  0  0  0
   10.2870    6.2860   24.5860 O   0  0  0  0  0  0  0  0  0  0  0  0
   11.2020    5.4810   22.5970 N   0  0  0  0  0  0  0  0  0  0  0  0
   12.1900    4.6440   23.2570 C   0  0  1  0  0  0  0  0  0  0  0  0
   12.6210    3.3830   22.4880 C   0  0  1  0  0  0  0  0  0  0  0  0
   12.2880    2.0170   23.1630 C   0  0  1  0  0  0  0  0  0  0  0  0
   10.7980    1.8040   23.4130 C   0  0  2  0  0  0  0  0  0  0  0  0
   12.7110    0.6920   22.6060 C   0  0  0  0  0  0  0  0  0  0  0  0
   10.7520    0.4630   23.8310 C   0  0  2  0  0  0  0  0  0  0  0  0
   11.8310   -0.1970   22.9870 C   0  0  0  0  0  0  0  0  0  0  0  0
    9.6130   -0.2460   23.5870 C   0  0  2  0  0  0  0  0  0  0  0  0
   11.7030   -1.6510   22.7700 C   0  0  2  0  0  0  0  0  0  0  0  0
   10.1450   -1.9880   23.6310 S   0  0  0  0  0  0  0  0  0  0  0  0
    8.4660    7.3590   23.0860 H   0  0  0  0  0  0  0  0  0  0  0  0
    9.4940    7.1760   21.6550 H   0  0  0  0  0  0  0  0  0  0  0  0
    8.4520    5.8090   22.1620 H   0  0  0  0  0  0  0  0  0  0  0  0
   10.9590    5.2960   21.6220 H   0  0  0  0  0  0  0  0  0  0  0  0
   13.0550    5.2760   23.4930 H   0  0  0  0  0  0  0  0  0  0  0  0
   11.7460    4.3420   24.2030 H   0  0  0  0  0  0  0  0  0  0  0  0
   12.1780    3.4450   21.4900 H   0  0  0  0  0  0  0  0  0  0  0  0
   13.7070    3.4380   22.3590 H   0  0  0  0  0  0  0  0  0  0  0  0
   12.7270    1.9720   24.1010 H   0  0  0  0  0  0  0  0  0  0  0  0
   10.2400    1.9560   22.4790 H   0  0  0  0  0  0  0  0  0  0  0  0
   10.3790    2.4860   24.1600 H   0  0  0  0  0  0  0  0  0  0  0  0
   13.5800    0.4770   22.0210 H   0  0  0  0  0  0  0  0  0  0  0  0
   11.0270    0.3790   24.8850 H   0  0  0  0  0  0  0  0  0  0  0  0
    9.1880   -0.0420   22.5980 H   0  0  0  0  0  0  0  0  0  0  0  0
    8.8450   -0.0550   24.3430 H   0  0  0  0  0  0  0  0  0  0  0  0
   12.5230   -2.2250   23.2140 H   0  0  0  0  0  0  0  0  0  0  0  0
   11.5930   -1.8980   21.7080 H   0  0  0  0  0  0  0  0  0  0  0  0
  1  2  1  0
  2  3  2  0
  2  4  1  0
  4  5  1  0
  5  6  1  0
  6  7  1  0
  7  8  1  0
  7  9  1  0
  8 10  1  0
  9 11  2  0
 10 11  1  0
 10 12  1  0
 11 13  1  0
 12 14  1  0
 13 14  1  0
  1 15  1  1
  1 16  1  0
  1 17  1  0
  4 18  1  0
  5 19  1  1
  5 20  1  0
  6 21  1  6
  6 22  1  0
  7 23  1  1
  8 24  1  6
  8 25  1  0
  9 26  1  0
 10 27  1  1
 12 28  1  6
 12 29  1  0
 13 30  1  1
 13 31  1  0
M  END
