
     RDKit          3D

 43 45  0  0  0  0  0  0  0  0999 V2000
    8.8370   -0.0050   21.7730 C   0  0  0  0  0  0  0  0  0  0  0  0
    7.7760   -0.5360   21.0630 N   0  0  0  0  0  0  0  0  0  0  0  0
    6.9000    0.0290   20.1420 C   0  0  0  0  0  0  0  0  0  0  0  0
    9.4710    1.0430   21.6510 O   0  0  0  0  0  0  0  0  0  0  0  0
    9.0580   -1.0300   22.8070 C   0  0  0  0  0  0  0  0  0  0  0  0
    8.3590   -0.9290   23.9910 C   0  0  0  0  0  0  0  0  0  0  0  0
    9.9080   -2.0330   22.5020 N   0  0  0  0  0  0  0  0  0  0  0  0
    5.7820    0.7630   20.5660 C   0  0  0  0  0  0  0  0  0  0  0  0
    7.0890   -0.1210   18.7860 C   0  0  0  0  0  0  0  0  0  0  0  0
    8.5060   -1.9480   24.9230 C   0  0  0  0  0  0  0  0  0  0  0  0
   10.0100   -2.9990   23.4440 C   0  0  0  0  0  0  0  0  0  0  0  0
    5.4670    0.9790   22.0180 C   0  0  1  0  0  0  0  0  0  0  0  0
    4.9340    1.3090   19.5890 C   0  0  0  0  0  0  0  0  0  0  0  0
    6.2860    0.3970   17.8380 N   0  0  0  0  0  0  0  0  0  0  0  0
    9.3350   -3.0480   24.6760 C   0  0  0  0  0  0  0  0  0  0  0  0
    5.2280    1.1010   18.2530 C   0  0  0  0  0  0  0  0  0  0  0  0
    9.4580   -4.1010   25.5770 N   0  0  0  0  0  0  0  0  0  0  0  0
    9.5670   -5.4290   24.9780 C   0  0  2  0  0  0  0  0  0  0  0  0
    8.5390   -4.2760   26.7170 C   0  0  1  0  0  0  0  0  0  0  0  0
    8.5960   -5.6270   23.8140 C   0  0  2  0  0  0  0  0  0  0  0  0
    7.0740   -4.5000   26.3210 C   0  0  2  0  0  0  0  0  0  0  0  0
    6.8500   -5.6550   25.5080 O   0  0  0  0  0  0  0  0  0  0  0  0
    7.1340   -5.4140   24.1330 C   0  0  2  0  0  0  0  0  0  0  0  0
    7.4800   -1.4240   21.4690 H   0  0  0  0  0  0  0  0  0  0  0  0
    7.7000   -0.0870   24.1810 H   0  0  0  0  0  0  0  0  0  0  0  0
    7.9270   -0.6880   18.3850 H   0  0  0  0  0  0  0  0  0  0  0  0
    7.9400   -1.8650   25.8470 H   0  0  0  0  0  0  0  0  0  0  0  0
   10.6850   -3.7900   23.1580 H   0  0  0  0  0  0  0  0  0  0  0  0
    6.2930    1.4640   22.5430 H   0  0  0  0  0  0  0  0  0  0  0  0
    4.5750    1.6090   22.1300 H   0  0  0  0  0  0  0  0  0  0  0  0
    5.2960    0.0210   22.5150 H   0  0  0  0  0  0  0  0  0  0  0  0
    4.0520    1.8900   19.8600 H   0  0  0  0  0  0  0  0  0  0  0  0
    4.6030    1.5070   17.4680 H   0  0  0  0  0  0  0  0  0  0  0  0
    9.3530   -6.1860   25.7450 H   0  0  0  0  0  0  0  0  0  0  0  0
   10.5800   -5.6510   24.6780 H   0  0  0  0  0  0  0  0  0  0  0  0
    8.8800   -5.0900   27.3700 H   0  0  0  0  0  0  0  0  0  0  0  0
    8.5760   -3.3960   27.3390 H   0  0  0  0  0  0  0  0  0  0  0  0
    8.7090   -6.6300   23.3790 H   0  0  0  0  0  0  0  0  0  0  0  0
    8.8710   -4.9190   23.0270 H   0  0  0  0  0  0  0  0  0  0  0  0
    6.6440   -3.6120   25.8380 H   0  0  0  0  0  0  0  0  0  0  0  0
    6.5000   -4.6500   27.2460 H   0  0  0  0  0  0  0  0  0  0  0  0
    6.5370   -6.1180   23.5420 H   0  0  0  0  0  0  0  0  0  0  0  0
    6.8080   -4.4110   23.8300 H   0  0  0  0  0  0  0  0  0  0  0  0
  1  2  1  0
  2  3  1  0
  1  4  2  0
  1  5  1  0
  5  6  2  0
  5  7  1  0
  3  8  2  0
  3  9  1  0
  6 10  1  0
  7 11  2  0
  8 12  1  0
  8 13  1  0
  9 14  2  0
 10 15  2  0
 11 15  1  0
 13 16  2  0
 14 16  1  0
 15 17  1  0
 17 18  1  0
 17 19  1  0
 18 20  1  0
 19 21  1  0
 21 22  1  0
 20 23  1  0
 22 23  1  0
  2 24  1  0
  6 25  1  0
  9 26  1  0
 10 27  1  0
 11 28  1  0
 12 29  1  1
 12 30  1  0
 12 31  1  0
 13 32  1  0
 16 33  1  0
 18 34  1  1
 18 35  1  0
 19 36  1  1
 19 37  1  0
 20 38  1  6
 20 39  1  0
 21 40  1  6
 21 41  1  0
 23 42  1  6
 23 43  1  0
M  END
