
     RDKit          3D

 54 56  0  0  0  0  0  0  0  0999 V2000
   12.9500   -1.2690   22.2010 C   0  0  1  0  0  0  0  0  0  0  0  0
   12.2000   -1.1550   23.4420 N   0  0  0  0  0  0  0  0  0  0  0  0
   11.0170   -0.2540   23.4870 C   0  0  1  0  0  0  0  0  0  0  0  0
   11.8050   -2.5140   23.8960 C   0  0  1  0  0  0  0  0  0  0  0  0
    9.8140   -0.6930   22.5870 C   0  0  2  0  0  0  0  0  0  0  0  0
   10.3710   -2.6900   24.4780 C   0  0  1  0  0  0  0  0  0  0  0  0
   10.6380   -0.2970   24.9710 C   0  0  2  0  0  0  0  0  0  0  0  0
    9.0120    0.3420   21.7640 C   0  0  0  0  0  0  0  0  0  0  0  0
    9.8910   -1.5120   25.2230 N   0  0  0  0  0  0  0  0  0  0  0  0
    8.5880   -1.4530   25.6850 C   0  0  0  0  0  0  0  0  0  0  0  0
    9.3820    1.4890   21.5030 O   0  0  0  0  0  0  0  0  0  0  0  0
    7.7980   -0.2120   21.3680 N   0  0  0  0  0  0  0  0  0  0  0  0
    7.7600   -2.3360   25.4440 O   0  0  0  0  0  0  0  0  0  0  0  0
    8.2200   -0.2260   26.5290 C   0  0  2  0  0  0  0  0  0  0  0  0
    6.9090    0.2720   20.3860 C   0  0  0  0  0  0  0  0  0  0  0  0
    7.2720   -0.5490   27.5450 O   0  0  0  0  0  0  0  0  0  0  0  0
    5.8760    1.1770   20.6130 C   0  0  0  0  0  0  0  0  0  0  0  0
    7.0570   -0.1760   19.0820 C   0  0  0  0  0  0  0  0  0  0  0  0
    6.9200    0.5140   28.3310 C   0  0  0  0  0  0  0  0  0  0  0  0
    4.9930    1.6110   19.4280 C   0  0  0  0  0  0  0  0  0  0  0  0
    6.2890    0.1960   18.0400 N   0  0  0  0  0  0  0  0  0  0  0  0
    7.6190    1.7130   28.3830 C   0  0  0  0  0  0  0  0  0  0  0  0
    5.7760    0.3500   29.1180 C   0  0  0  0  0  0  0  0  0  0  0  0
    5.2880    1.0670   18.2110 C   0  0  0  0  0  0  0  0  0  0  0  0
    7.1820    2.7400   29.2130 C   0  0  0  0  0  0  0  0  0  0  0  0
    5.3260    1.3970   29.9640 C   0  0  0  0  0  0  0  0  0  0  0  0
    6.0430    2.6120   30.0120 C   0  0  0  0  0  0  0  0  0  0  0  0
    5.5860    3.7330   30.8990 C   0  0  1  0  0  0  0  0  0  0  0  0
   13.4050   -0.3160   21.9100 H   0  0  0  0  0  0  0  0  0  0  0  0
   13.7350   -2.0220   22.2870 H   0  0  0  0  0  0  0  0  0  0  0  0
   12.2920   -1.5620   21.3810 H   0  0  0  0  0  0  0  0  0  0  0  0
   11.3480    0.7600   23.2140 H   0  0  0  0  0  0  0  0  0  0  0  0
   11.9190   -3.1750   23.0370 H   0  0  0  0  0  0  0  0  0  0  0  0
   12.5060   -2.8700   24.6650 H   0  0  0  0  0  0  0  0  0  0  0  0
    9.0800   -1.2250   23.2050 H   0  0  0  0  0  0  0  0  0  0  0  0
   10.1890   -1.4070   21.8400 H   0  0  0  0  0  0  0  0  0  0  0  0
    9.6570   -2.8760   23.6660 H   0  0  0  0  0  0  0  0  0  0  0  0
   10.3480   -3.5730   25.1220 H   0  0  0  0  0  0  0  0  0  0  0  0
   10.0200    0.5310   25.2930 H   0  0  0  0  0  0  0  0  0  0  0  0
   11.5350   -0.3190   25.5840 H   0  0  0  0  0  0  0  0  0  0  0  0
    7.5970   -1.1450   21.7140 H   0  0  0  0  0  0  0  0  0  0  0  0
    7.8480    0.5470   25.8490 H   0  0  0  0  0  0  0  0  0  0  0  0
    9.1470    0.1350   26.9910 H   0  0  0  0  0  0  0  0  0  0  0  0
    5.6670    1.5910   21.5940 H   0  0  0  0  0  0  0  0  0  0  0  0
    7.8350   -0.8880   18.8130 H   0  0  0  0  0  0  0  0  0  0  0  0
    4.1750    2.3160   19.5520 H   0  0  0  0  0  0  0  0  0  0  0  0
    8.5110    1.8710   27.7810 H   0  0  0  0  0  0  0  0  0  0  0  0
    5.2240   -0.5870   29.0800 H   0  0  0  0  0  0  0  0  0  0  0  0
    4.7180    1.3190   17.3220 H   0  0  0  0  0  0  0  0  0  0  0  0
    7.6900    3.7050   29.2960 H   0  0  0  0  0  0  0  0  0  0  0  0
    4.4320    1.2540   30.5690 H   0  0  0  0  0  0  0  0  0  0  0  0
    5.7720    3.5020   31.9530 H   0  0  0  0  0  0  0  0  0  0  0  0
    6.1200    4.6530   30.6390 H   0  0  0  0  0  0  0  0  0  0  0  0
    4.5090    3.9050   30.7890 H   0  0  0  0  0  0  0  0  0  0  0  0
  1  2  1  0
  2  3  1  0
  2  4  1  0
  3  5  1  0
  4  6  1  0
  3  7  1  0
  5  8  1  0
  6  9  1  0
  7  9  1  0
  9 10  1  0
  8 11  2  0
  8 12  1  0
 10 13  2  0
 10 14  1  0
 12 15  1  0
 14 16  1  0
 15 17  2  0
 15 18  1  0
 16 19  1  0
 17 20  1  0
 18 21  2  0
 19 22  2  0
 19 23  1  0
 20 24  2  0
 21 24  1  0
 22 25  1  0
 23 26  2  0
 25 27  2  0
 26 27  1  0
 27 28  1  0
  1 29  1  6
  1 30  1  0
  1 31  1  0
  3 32  1  6
  4 33  1  6
  4 34  1  0
  5 35  1  1
  5 36  1  0
  6 37  1  6
  6 38  1  0
  7 39  1  1
  7 40  1  0
 12 41  1  0
 14 42  1  6
 14 43  1  0
 17 44  1  0
 18 45  1  0
 20 46  1  0
 22 47  1  0
 23 48  1  0
 24 49  1  0
 25 50  1  0
 26 51  1  0
 28 52  1  1
 28 53  1  0
 28 54  1  0
M  END
