
     RDKit          3D

 73 76  0  0  0  0  0  0  0  0999 V2000
   13.1640   -1.1770   22.4750 C   0  0  1  0  0  0  0  0  0  0  0  0
   11.9020   -1.1850   23.1960 N   0  0  0  0  0  0  0  0  0  0  0  0
   11.9640   -0.3490   24.4060 C   0  0  1  0  0  0  0  0  0  0  0  0
   11.4970   -2.5640   23.5280 C   0  0  1  0  0  0  0  0  0  0  0  0
   10.4670   -2.6470   24.6730 C   0  0  1  0  0  0  0  0  0  0  0  0
   10.6100   -0.2850   25.1380 C   0  0  2  0  0  0  0  0  0  0  0  0
    9.7190   -1.3840   24.7990 N   0  0  0  0  0  0  0  0  0  0  0  0
    8.3820   -1.2720   25.2020 C   0  0  0  0  0  0  0  0  0  0  0  0
    7.4390   -2.1370   25.0000 N   0  0  0  0  0  0  0  0  0  0  0  0
    7.9170    0.0210   25.9540 C   0  0  2  0  0  0  0  0  0  0  0  0
    6.9600   -0.3100   26.9770 O   0  0  0  0  0  0  0  0  0  0  0  0
    7.6470   -3.4030   24.2830 C   0  0  1  0  0  0  0  0  0  0  0  0
    6.6590    0.6110   27.9650 C   0  0  0  0  0  0  0  0  0  0  0  0
    7.6940   -3.2170   22.7360 C   0  0  1  0  0  0  0  0  0  0  0  0
    7.5000    1.7260   28.0820 C   0  0  0  0  0  0  0  0  0  0  0  0
    5.5780    0.4900   28.8380 C   0  0  0  0  0  0  0  0  0  0  0  0
    6.4240   -3.4680   22.0110 N   0  0  0  0  0  0  0  0  0  0  0  0
    7.2570    2.7040   29.0530 C   0  0  0  0  0  0  0  0  0  0  0  0
    5.3320    1.4650   29.8080 C   0  0  0  0  0  0  0  0  0  0  0  0
    6.3170   -2.9960   20.6760 C   0  0  0  0  0  0  0  0  0  0  0  0
    5.6570   -4.6040   22.4920 C   0  0  2  0  0  0  0  0  0  0  0  0
    6.1670    2.5840   29.9250 C   0  0  0  0  0  0  0  0  0  0  0  0
    7.0290   -1.8680   20.2680 N   0  0  0  0  0  0  0  0  0  0  0  0
    5.5960   -3.5670   19.8460 O   0  0  0  0  0  0  0  0  0  0  0  0
    6.3160   -5.7020   23.2970 C   0  0  1  0  0  0  0  0  0  0  0  0
    5.7880   -6.0030   21.9360 C   0  0  2  0  0  0  0  0  0  0  0  0
    5.8780    3.6200   30.9710 C   0  0  1  0  0  0  0  0  0  0  0  0
    8.1030   -1.2380   21.0120 C   0  0  1  0  0  0  0  0  0  0  0  0
    6.9050   -1.4570   18.8620 C   0  0  1  0  0  0  0  0  0  0  0  0
    6.0750   -0.2340   18.7770 C   0  0  0  0  0  0  0  0  0  0  0  0
    4.9170    0.0600   19.5120 C   0  0  0  0  0  0  0  0  0  0  0  0
    6.3700    0.7640   17.9430 N   0  0  0  0  0  0  0  0  0  0  0  0
    5.4040    1.7200   18.1290 O   0  0  0  0  0  0  0  0  0  0  0  0
    4.5370    1.2910   19.0720 C   0  0  0  0  0  0  0  0  0  0  0  0
    3.4300    2.1910   19.4110 C   0  0  1  0  0  0  0  0  0  0  0  0
   13.5940   -0.1680   22.4650 H   0  0  0  0  0  0  0  0  0  0  0  0
   13.8880   -1.8610   22.9270 H   0  0  0  0  0  0  0  0  0  0  0  0
   13.0170   -1.4710   21.4300 H   0  0  0  0  0  0  0  0  0  0  0  0
   12.7330   -0.7220   25.0980 H   0  0  0  0  0  0  0  0  0  0  0  0
   12.2490    0.6730   24.1250 H   0  0  0  0  0  0  0  0  0  0  0  0
   11.0450   -3.0200   22.6410 H   0  0  0  0  0  0  0  0  0  0  0  0
   12.3790   -3.1630   23.7820 H   0  0  0  0  0  0  0  0  0  0  0  0
    9.8020   -3.5040   24.5320 H   0  0  0  0  0  0  0  0  0  0  0  0
   11.0020   -2.8250   25.6130 H   0  0  0  0  0  0  0  0  0  0  0  0
   10.1370    0.6740   24.9170 H   0  0  0  0  0  0  0  0  0  0  0  0
   10.7650   -0.3220   26.2150 H   0  0  0  0  0  0  0  0  0  0  0  0
    7.4740    0.6870   25.2080 H   0  0  0  0  0  0  0  0  0  0  0  0
    8.7880    0.5250   26.3830 H   0  0  0  0  0  0  0  0  0  0  0  0
    8.5330   -3.9570   24.6130 H   0  0  0  0  0  0  0  0  0  0  0  0
    6.7990   -4.0450   24.5420 H   0  0  0  0  0  0  0  0  0  0  0  0
    8.0280   -2.2030   22.5060 H   0  0  0  0  0  0  0  0  0  0  0  0
    8.4740   -3.8620   22.3150 H   0  0  0  0  0  0  0  0  0  0  0  0
    8.3460    1.8300   27.4090 H   0  0  0  0  0  0  0  0  0  0  0  0
    4.9010   -0.3580   28.7860 H   0  0  0  0  0  0  0  0  0  0  0  0
    7.9270    3.5610   29.1190 H   0  0  0  0  0  0  0  0  0  0  0  0
    4.4810    1.3490   30.4750 H   0  0  0  0  0  0  0  0  0  0  0  0
    4.6380   -4.3260   22.7550 H   0  0  0  0  0  0  0  0  0  0  0  0
    7.3940   -5.6880   23.4180 H   0  0  0  0  0  0  0  0  0  0  0  0
    5.7750   -6.0930   24.1480 H   0  0  0  0  0  0  0  0  0  0  0  0
    6.5040   -6.1620   21.1470 H   0  0  0  0  0  0  0  0  0  0  0  0
    4.9290   -6.6550   21.8750 H   0  0  0  0  0  0  0  0  0  0  0  0
    6.7640    3.7900   31.5910 H   0  0  0  0  0  0  0  0  0  0  0  0
    5.5830    4.5640   30.5000 H   0  0  0  0  0  0  0  0  0  0  0  0
    5.0620    3.3070   31.6320 H   0  0  0  0  0  0  0  0  0  0  0  0
    7.7960   -1.1040   22.0550 H   0  0  0  0  0  0  0  0  0  0  0  0
    8.9960   -1.8650   21.0180 H   0  0  0  0  0  0  0  0  0  0  0  0
    8.3080   -0.2560   20.5900 H   0  0  0  0  0  0  0  0  0  0  0  0
    7.8800   -1.2290   18.4170 H   0  0  0  0  0  0  0  0  0  0  0  0
    6.4720   -2.2780   18.2800 H   0  0  0  0  0  0  0  0  0  0  0  0
    4.4310   -0.5480   20.2620 H   0  0  0  0  0  0  0  0  0  0  0  0
    3.7270    2.9020   20.1880 H   0  0  0  0  0  0  0  0  0  0  0  0
    3.1180    2.7620   18.5310 H   0  0  0  0  0  0  0  0  0  0  0  0
    2.5710    1.6210   19.7780 H   0  0  0  0  0  0  0  0  0  0  0  0
  1  2  1  0
  2  3  1  0
  2  4  1  0
  4  5  1  0
  3  6  1  0
  5  7  1  0
  6  7  1  0
  7  8  1  0
  8  9  2  0
  8 10  1  0
 10 11  1  0
  9 12  1  0
 11 13  1  0
 12 14  1  0
 13 15  2  0
 13 16  1  0
 14 17  1  0
 15 18  1  0
 16 19  2  0
 17 20  1  0
 17 21  1  0
 18 22  2  0
 19 22  1  0
 20 23  1  0
 20 24  2  0
 21 25  1  0
 21 26  1  0
 25 26  1  0
 22 27  1  0
 23 28  1  0
 23 29  1  0
 29 30  1  0
 30 31  1  0
 30 32  2  0
 32 33  1  0
 31 34  2  0
 33 34  1  0
 34 35  1  0
  1 36  1  6
  1 37  1  0
  1 38  1  0
  3 39  1  1
  3 40  1  0
  4 41  1  6
  4 42  1  0
  5 43  1  6
  5 44  1  0
  6 45  1  1
  6 46  1  0
 10 47  1  6
 10 48  1  0
 12 49  1  1
 12 50  1  0
 14 51  1  1
 14 52  1  0
 15 53  1  0
 16 54  1  0
 18 55  1  0
 19 56  1  0
 21 57  1  1
 25 58  1  6
 25 59  1  0
 26 60  1  6
 26 61  1  0
 27 62  1  1
 27 63  1  0
 27 64  1  0
 28 65  1  1
 28 66  1  0
 28 67  1  0
 29 68  1  6
 29 69  1  0
 31 70  1  0
 35 71  1  1
 35 72  1  0
 35 73  1  0
M  END
