
     RDKit          3D

 50 53  0  0  0  0  0  0  0  0999 V2000
   12.9150   -1.3360   22.2280 C   0  0  1  0  0  0  0  0  0  0  0  0
   11.7590   -1.3880   23.1170 N   0  0  0  0  0  0  0  0  0  0  0  0
   11.2060   -0.1540   23.6580 C   0  0  1  0  0  0  0  0  0  0  0  0
   10.8630   -2.5570   23.1420 C   0  0  1  0  0  0  0  0  0  0  0  0
    9.7940   -2.6720   24.3000 C   0  0  1  0  0  0  0  0  0  0  0  0
   10.6370   -0.3460   25.0770 C   0  0  2  0  0  0  0  0  0  0  0  0
    9.8550   -1.5800   25.3230 N   0  0  0  0  0  0  0  0  0  0  0  0
    8.4200   -2.5420   23.8130 N   0  0  0  0  0  0  0  0  0  0  0  0
    9.7310   -4.1500   24.8580 C   0  0  2  0  0  0  0  0  0  0  0  0
    8.5130   -1.1530   25.6570 C   0  0  1  0  0  0  0  0  0  0  0  0
    8.6270   -4.5410   25.8650 C   0  0  1  0  0  0  0  0  0  0  0  0
    7.6610   -2.2870   25.0750 C   0  0  2  0  0  0  0  0  0  0  0  0
    8.3690   -0.8040   27.1450 C   0  0  2  0  0  0  0  0  0  0  0  0
    9.0570   -4.8640   27.1900 O   0  0  0  0  0  0  0  0  0  0  0  0
    7.4850   -3.5520   25.9440 C   0  0  1  0  0  0  0  0  0  0  0  0
    7.0170   -0.5280   27.4880 O   0  0  0  0  0  0  0  0  0  0  0  0
    6.6840    0.4880   28.3360 C   0  0  0  0  0  0  0  0  0  0  0  0
    7.5290    1.6070   28.3360 C   0  0  0  0  0  0  0  0  0  0  0  0
    5.5790    0.4760   29.1760 C   0  0  0  0  0  0  0  0  0  0  0  0
    7.2600    2.7000   29.1710 C   0  0  0  0  0  0  0  0  0  0  0  0
    5.3080    1.5630   30.0090 C   0  0  0  0  0  0  0  0  0  0  0  0
    6.1430    2.6830   30.0140 C   0  0  0  0  0  0  0  0  0  0  0  0
    5.8350    3.8420   30.9110 C   0  0  1  0  0  0  0  0  0  0  0  0
   13.3040   -0.3190   22.0960 H   0  0  0  0  0  0  0  0  0  0  0  0
   13.7210   -1.9600   22.6200 H   0  0  0  0  0  0  0  0  0  0  0  0
   12.6640   -1.7440   21.2380 H   0  0  0  0  0  0  0  0  0  0  0  0
   11.9730    0.6340   23.7020 H   0  0  0  0  0  0  0  0  0  0  0  0
   10.4160    0.2030   22.9860 H   0  0  0  0  0  0  0  0  0  0  0  0
   10.3990   -2.7310   22.1610 H   0  0  0  0  0  0  0  0  0  0  0  0
   11.5540   -3.3920   23.2730 H   0  0  0  0  0  0  0  0  0  0  0  0
    9.9920    0.5120   25.2830 H   0  0  0  0  0  0  0  0  0  0  0  0
   11.4590   -0.2890   25.7850 H   0  0  0  0  0  0  0  0  0  0  0  0
    8.3850   -1.7000   23.2360 H   0  0  0  0  0  0  0  0  0  0  0  0
   10.6940   -4.5540   25.1370 H   0  0  0  0  0  0  0  0  0  0  0  0
    9.4560   -4.7590   24.0040 H   0  0  0  0  0  0  0  0  0  0  0  0
    8.2800   -0.2510   25.0730 H   0  0  0  0  0  0  0  0  0  0  0  0
    8.1940   -5.4770   25.4870 H   0  0  0  0  0  0  0  0  0  0  0  0
    6.6660   -1.8940   24.8300 H   0  0  0  0  0  0  0  0  0  0  0  0
    9.0360    0.0130   27.4470 H   0  0  0  0  0  0  0  0  0  0  0  0
    8.6620   -1.6610   27.7620 H   0  0  0  0  0  0  0  0  0  0  0  0
    9.2500   -5.8180   27.2090 H   0  0  0  0  0  0  0  0  0  0  0  0
    6.5410   -4.0630   25.7350 H   0  0  0  0  0  0  0  0  0  0  0  0
    7.4040   -3.2430   26.9970 H   0  0  0  0  0  0  0  0  0  0  0  0
    8.3970    1.6300   27.6830 H   0  0  0  0  0  0  0  0  0  0  0  0
    4.8950   -0.3630   29.2150 H   0  0  0  0  0  0  0  0  0  0  0  0
    7.9280    3.5590   29.1540 H   0  0  0  0  0  0  0  0  0  0  0  0
    4.4350    1.5300   30.6550 H   0  0  0  0  0  0  0  0  0  0  0  0
    5.7630    3.5030   31.9490 H   0  0  0  0  0  0  0  0  0  0  0  0
    6.6170    4.6070   30.8420 H   0  0  0  0  0  0  0  0  0  0  0  0
    4.8900    4.3170   30.6280 H   0  0  0  0  0  0  0  0  0  0  0  0
  1  2  1  0
  2  3  1  0
  2  4  1  0
  4  5  1  0
  3  6  1  0
  5  7  1  1
  6  7  1  0
  5  8  1  0
  5  9  1  0
  7 10  1  0
  9 11  1  0
  8 12  1  0
 10 12  1  0
 10 13  1  0
 11 14  1  0
 11 15  1  0
 12 15  1  0
 13 16  1  0
 16 17  1  0
 17 18  2  0
 17 19  1  0
 18 20  1  0
 19 21  2  0
 20 22  2  0
 21 22  1  0
 22 23  1  0
  1 24  1  6
  1 25  1  0
  1 26  1  0
  3 27  1  1
  3 28  1  0
  4 29  1  6
  4 30  1  0
  6 31  1  1
  6 32  1  0
  8 33  1  0
  9 34  1  1
  9 35  1  0
 10 36  1  6
 11 37  1  6
 12 38  1  6
 13 39  1  1
 13 40  1  0
 14 41  1  0
 15 42  1  6
 15 43  1  0
 18 44  1  0
 19 45  1  0
 20 46  1  0
 21 47  1  0
 23 48  1  1
 23 49  1  0
 23 50  1  0
M  END
