
     RDKit          3D

 58 60  0  0  0  0  0  0  0  0999 V2000
   13.1280   -1.1300   22.3130 C   0  0  1  0  0  0  0  0  0  0  0  0
   12.3630   -1.2720   23.5310 N   0  0  0  0  0  0  0  0  0  0  0  0
   11.6050   -0.0750   23.8720 C   0  0  2  0  0  0  0  0  0  0  0  0
   11.5030   -2.4630   23.3580 C   0  0  1  0  0  0  0  0  0  0  0  0
   10.3480   -2.6650   24.3430 C   0  0  1  0  0  0  0  0  0  0  0  0
   10.6940   -0.3090   25.0380 C   0  0  2  0  0  0  0  0  0  0  0  0
   10.8410    0.4550   22.7870 O   0  0  0  0  0  0  0  0  0  0  0  0
    9.7690   -1.4050   24.8480 N   0  0  0  0  0  0  0  0  0  0  0  0
    9.7760   -0.4060   22.3640 C   0  0  2  0  0  0  0  0  0  0  0  0
    8.4810   -1.3380   25.3720 C   0  0  0  0  0  0  0  0  0  0  0  0
    8.9090    0.2970   21.5350 C   0  0  0  0  0  0  0  0  0  0  0  0
    7.5900   -2.1790   25.2180 O   0  0  0  0  0  0  0  0  0  0  0  0
    8.0680   -0.1570   26.2560 C   0  0  2  0  0  0  0  0  0  0  0  0
    9.1170    1.4880   21.2680 O   0  0  0  0  0  0  0  0  0  0  0  0
    7.8460   -0.4590   21.0810 N   0  0  0  0  0  0  0  0  0  0  0  0
    7.3040   -0.5440   27.3940 O   0  0  0  0  0  0  0  0  0  0  0  0
    6.9140   -0.0300   20.1320 C   0  0  0  0  0  0  0  0  0  0  0  0
    6.9500    0.4860   28.2150 C   0  0  0  0  0  0  0  0  0  0  0  0
    5.7450    0.6240   20.5500 C   0  0  0  0  0  0  0  0  0  0  0  0
    7.0880   -0.2100   18.7760 C   0  0  0  0  0  0  0  0  0  0  0  0
    7.6540    1.6840   28.2840 C   0  0  0  0  0  0  0  0  0  0  0  0
    5.7150    0.2250   29.0540 C   0  0  0  0  0  0  0  0  0  0  0  0
    5.4320    0.8700   21.9990 C   0  0  1  0  0  0  0  0  0  0  0  0
    4.8360    1.0670   19.5820 C   0  0  0  0  0  0  0  0  0  0  0  0
    6.2240    0.2140   17.8350 N   0  0  0  0  0  0  0  0  0  0  0  0
    7.2730    2.8450   29.1890 C   0  0  0  0  0  0  0  0  0  0  0  0
    5.2530    1.3340   29.9930 C   0  0  0  0  0  0  0  0  0  0  0  0
    5.1230    0.8430   18.2540 C   0  0  0  0  0  0  0  0  0  0  0  0
    6.0360    2.6610   30.0660 C   0  0  0  0  0  0  0  0  0  0  0  0
    5.5940    3.7640   30.9830 C   0  0  1  0  0  0  0  0  0  0  0  0
   14.0090   -1.7490   22.3230 H   0  0  0  0  0  0  0  0  0  0  0  0
   12.5320   -1.4010   21.4340 H   0  0  0  0  0  0  0  0  0  0  0  0
   13.3920   -0.0700   22.1980 H   0  0  0  0  0  0  0  0  0  0  0  0
   12.3270    0.6890   24.1940 H   0  0  0  0  0  0  0  0  0  0  0  0
   11.0720   -2.4880   22.3460 H   0  0  0  0  0  0  0  0  0  0  0  0
   12.1670   -3.3210   23.4350 H   0  0  0  0  0  0  0  0  0  0  0  0
    9.5700   -3.2750   23.8700 H   0  0  0  0  0  0  0  0  0  0  0  0
   10.7310   -3.2340   25.1870 H   0  0  0  0  0  0  0  0  0  0  0  0
   10.1200    0.5960   25.2260 H   0  0  0  0  0  0  0  0  0  0  0  0
   11.2620   -0.5140   25.9360 H   0  0  0  0  0  0  0  0  0  0  0  0
    9.2010   -0.7710   23.2140 H   0  0  0  0  0  0  0  0  0  0  0  0
   10.1820   -1.2370   21.7770 H   0  0  0  0  0  0  0  0  0  0  0  0
    7.5160    0.5450   25.6170 H   0  0  0  0  0  0  0  0  0  0  0  0
    8.9900    0.3290   26.6010 H   0  0  0  0  0  0  0  0  0  0  0  0
    7.7440   -1.3700   21.5240 H   0  0  0  0  0  0  0  0  0  0  0  0
    7.9550   -0.7130   18.3630 H   0  0  0  0  0  0  0  0  0  0  0  0
    8.5260    1.8220   27.6650 H   0  0  0  0  0  0  0  0  0  0  0  0
    5.1750   -0.7170   28.9890 H   0  0  0  0  0  0  0  0  0  0  0  0
    6.2730    1.3340   22.5260 H   0  0  0  0  0  0  0  0  0  0  0  0
    4.5730    1.5410   22.0920 H   0  0  0  0  0  0  0  0  0  0  0  0
    5.2120   -0.0780   22.5030 H   0  0  0  0  0  0  0  0  0  0  0  0
    3.9200    1.5810   19.8520 H   0  0  0  0  0  0  0  0  0  0  0  0
    7.8610    3.7620   29.2030 H   0  0  0  0  0  0  0  0  0  0  0  0
    4.3710    1.1790   30.6060 H   0  0  0  0  0  0  0  0  0  0  0  0
    4.4520    1.1710   17.4720 H   0  0  0  0  0  0  0  0  0  0  0  0
    5.7440    3.4920   32.0330 H   0  0  0  0  0  0  0  0  0  0  0  0
    6.1670    4.6740   30.7770 H   0  0  0  0  0  0  0  0  0  0  0  0
    4.5280    3.9710   30.8440 H   0  0  0  0  0  0  0  0  0  0  0  0
  1  2  1  0
  2  3  1  0
  2  4  1  0
  4  5  1  0
  3  6  1  0
  3  7  1  0
  5  8  1  0
  6  8  1  0
  7  9  1  0
  8 10  1  0
  9 11  1  0
 10 12  2  0
 10 13  1  0
 11 14  2  0
 11 15  1  0
 13 16  1  0
 15 17  1  0
 16 18  1  0
 17 19  2  0
 17 20  1  0
 18 21  2  0
 18 22  1  0
 19 23  1  0
 19 24  1  0
 20 25  2  0
 21 26  1  0
 22 27  2  0
 24 28  2  0
 25 28  1  0
 26 29  2  0
 27 29  1  0
 29 30  1  0
  1 31  1  1
  1 32  1  0
  1 33  1  0
  3 34  1  1
  4 35  1  6
  4 36  1  0
  5 37  1  6
  5 38  1  0
  6 39  1  1
  6 40  1  0
  9 41  1  1
  9 42  1  0
 13 43  1  6
 13 44  1  0
 15 45  1  0
 20 46  1  0
 21 47  1  0
 22 48  1  0
 23 49  1  1
 23 50  1  0
 23 51  1  0
 24 52  1  0
 26 53  1  0
 27 54  1  0
 28 55  1  0
 30 56  1  1
 30 57  1  0
 30 58  1  0
M  END
