
     RDKit          3D

 38 39  0  0  0  0  0  0  0  0999 V2000
    7.3450   -0.7140   21.5080 C   0  0  1  0  0  0  0  0  0  0  0  0
    6.9250   -1.6310   20.5530 N   0  0  0  0  0  0  0  0  0  0  0  0
    6.8740   -1.2310   19.1330 C   0  0  1  0  0  0  0  0  0  0  0  0
    8.8340   -0.3380   21.5960 C   0  0  0  0  0  0  0  0  0  0  0  0
    6.0840   -2.7490   20.8550 C   0  0  0  0  0  0  0  0  0  0  0  0
    9.8500   -1.3870   21.9670 C   0  0  1  0  0  0  0  0  0  0  0  0
    9.1930    0.8240   21.3920 O   0  0  0  0  0  0  0  0  0  0  0  0
    5.3060   -3.2430   20.0360 O   0  0  0  0  0  0  0  0  0  0  0  0
    6.2210   -3.2680   22.1240 N   0  0  0  0  0  0  0  0  0  0  0  0
    6.0360   -0.0530   18.8930 C   0  0  0  0  0  0  0  0  0  0  0  0
    5.1060    0.5400   19.7230 C   0  0  0  0  0  0  0  0  0  0  0  0
    6.1420    0.5700   17.7240 N   0  0  0  0  0  0  0  0  0  0  0  0
    5.6300   -4.5270   22.4820 C   0  0  2  0  0  0  0  0  0  0  0  0
    4.7070    0.1880   21.0310 C   0  0  1  0  0  0  0  0  0  0  0  0
    5.2600    1.6040   17.7660 O   0  0  0  0  0  0  0  0  0  0  0  0
    4.6370    1.5800   18.9670 C   0  0  0  0  0  0  0  0  0  0  0  0
    6.4310   -5.5750   23.3760 C   0  0  1  0  0  0  0  0  0  0  0  0
    6.1100   -5.6730   22.0410 C   0  0  2  0  0  0  0  0  0  0  0  0
    3.6330    2.6210   19.2050 C   0  0  1  0  0  0  0  0  0  0  0  0
    6.8360    0.2390   21.3500 H   0  0  0  0  0  0  0  0  0  0  0  0
    7.0370   -1.0850   22.4910 H   0  0  0  0  0  0  0  0  0  0  0  0
    7.8800   -0.9980   18.7850 H   0  0  0  0  0  0  0  0  0  0  0  0
    6.4710   -2.0500   18.5260 H   0  0  0  0  0  0  0  0  0  0  0  0
    9.9520   -1.4580   23.0570 H   0  0  0  0  0  0  0  0  0  0  0  0
    9.5470   -2.3810   21.6100 H   0  0  0  0  0  0  0  0  0  0  0  0
   10.8230   -1.1440   21.5310 H   0  0  0  0  0  0  0  0  0  0  0  0
    6.1860   -2.5560   22.8440 H   0  0  0  0  0  0  0  0  0  0  0  0
    4.5520   -4.4780   22.6290 H   0  0  0  0  0  0  0  0  0  0  0  0
    4.9100   -0.8680   21.2310 H   0  0  0  0  0  0  0  0  0  0  0  0
    5.2250    0.7820   21.7900 H   0  0  0  0  0  0  0  0  0  0  0  0
    3.6330    0.3570   21.1500 H   0  0  0  0  0  0  0  0  0  0  0  0
    7.4560   -5.3400   23.6500 H   0  0  0  0  0  0  0  0  0  0  0  0
    5.8870   -6.1680   24.0980 H   0  0  0  0  0  0  0  0  0  0  0  0
    6.9340   -5.6170   21.3430 H   0  0  0  0  0  0  0  0  0  0  0  0
    5.3980   -6.4450   21.7670 H   0  0  0  0  0  0  0  0  0  0  0  0
    3.9600    3.2910   20.0100 H   0  0  0  0  0  0  0  0  0  0  0  0
    3.4730    3.2320   18.3100 H   0  0  0  0  0  0  0  0  0  0  0  0
    2.6740    2.1750   19.4860 H   0  0  0  0  0  0  0  0  0  0  0  0
  1  2  1  0
  2  3  1  0
  1  4  1  0
  2  5  1  0
  4  6  1  0
  4  7  2  0
  5  8  2  0
  5  9  1  0
  3 10  1  0
 10 11  1  0
 10 12  2  0
  9 13  1  0
 11 14  1  0
 12 15  1  0
 11 16  2  0
 15 16  1  0
 13 17  1  0
 13 18  1  0
 17 18  1  0
 16 19  1  0
  1 20  1  6
  1 21  1  0
  3 22  1  6
  3 23  1  0
  6 24  1  1
  6 25  1  0
  6 26  1  0
  9 27  1  0
 13 28  1  1
 14 29  1  1
 14 30  1  0
 14 31  1  0
 17 32  1  6
 17 33  1  0
 18 34  1  6
 18 35  1  0
 19 36  1  1
 19 37  1  0
 19 38  1  0
M  END
