
     RDKit          3D

 38 39  0  0  0  0  0  0  0  0999 V2000
    2.1320    1.8490   23.9480 C   0  0  0  0  0  0  0  0  0  0  0  0
    3.1570    2.5480   23.3460 N   0  0  0  0  0  0  0  0  0  0  0  0
    4.1130    1.8520   22.4760 C   0  0  1  0  0  0  0  0  0  0  0  0
    2.0630    0.4320   23.9230 O   0  0  0  0  0  0  0  0  0  0  0  0
    1.0880    2.6450   24.6420 C   0  0  0  0  0  0  0  0  0  0  0  0
    1.3760    3.8570   25.2820 C   0  0  0  0  0  0  0  0  0  0  0  0
   -0.2390    2.1460   24.6440 C   0  0  0  0  0  0  0  0  0  0  0  0
    3.5580    1.7030   21.0580 C   0  0  1  0  0  0  0  0  0  0  0  0
    2.6220    4.3570   25.2960 F   0  0  0  0  0  0  0  0  0  0  0  0
   -1.2370    2.8710   25.2850 C   0  0  0  0  0  0  0  0  0  0  0  0
    0.3730    4.5850   25.9260 C   0  0  0  0  0  0  0  0  0  0  0  0
   -0.9180    4.0610   25.9060 C   0  0  0  0  0  0  0  0  0  0  0  0
    4.6340    1.2300   20.1430 C   0  0  0  0  0  0  0  0  0  0  0  0
    5.6990    0.5290   20.6680 C   0  0  0  0  0  0  0  0  0  0  0  0
    4.6270    1.4890   18.6530 C   0  0  0  0  0  0  0  0  0  0  0  0
    6.8030    0.0460   19.7440 C   0  0  0  0  0  0  0  0  0  0  0  0
    5.6930    0.9930   17.9040 C   0  0  0  0  0  0  0  0  0  0  0  0
    7.8320   -0.6360   20.4340 N   0  0  0  0  0  0  0  0  0  0  0  0
    6.7450    0.2920   18.4010 N   0  0  0  0  0  0  0  0  0  0  0  0
    8.8090    0.0300   21.3130 C   0  0  0  0  0  0  0  0  0  0  0  0
    9.5170   -0.9350   22.2590 C   0  0  1  0  0  0  0  0  0  0  0  0
    9.1030    1.2350   21.3080 O   0  0  0  0  0  0  0  0  0  0  0  0
    2.9220    3.5050   23.1020 H   0  0  0  0  0  0  0  0  0  0  0  0
    5.0170    2.4710   22.4480 H   0  0  0  0  0  0  0  0  0  0  0  0
    4.3810    0.8800   22.9040 H   0  0  0  0  0  0  0  0  0  0  0  0
   -0.4810    1.2060   24.1510 H   0  0  0  0  0  0  0  0  0  0  0  0
    2.7360    0.9750   21.0720 H   0  0  0  0  0  0  0  0  0  0  0  0
    3.1580    2.6460   20.6700 H   0  0  0  0  0  0  0  0  0  0  0  0
   -2.2940    2.5800   25.3510 H   0  0  0  0  0  0  0  0  0  0  0  0
    0.5980    5.5230   26.4220 H   0  0  0  0  0  0  0  0  0  0  0  0
   -1.7240    4.6120   26.4060 H   0  0  0  0  0  0  0  0  0  0  0  0
    5.7550    0.3230   21.7340 H   0  0  0  0  0  0  0  0  0  0  0  0
    3.8290    2.0390   18.1720 H   0  0  0  0  0  0  0  0  0  0  0  0
    5.7270    1.1590   16.8370 H   0  0  0  0  0  0  0  0  0  0  0  0
    7.9170   -1.6310   20.2840 H   0  0  0  0  0  0  0  0  0  0  0  0
    9.8490   -0.3980   23.1540 H   0  0  0  0  0  0  0  0  0  0  0  0
    8.8420   -1.7350   22.5840 H   0  0  0  0  0  0  0  0  0  0  0  0
   10.3850   -1.3700   21.7490 H   0  0  0  0  0  0  0  0  0  0  0  0
  1  2  1  0
  2  3  1  0
  1  4  2  0
  1  5  1  0
  5  6  2  0
  5  7  1  0
  3  8  1  0
  6  9  1  0
  7 10  2  0
  6 11  1  0
 10 12  1  0
 11 12  2  0
  8 13  1  0
 13 14  2  0
 13 15  1  0
 14 16  1  0
 15 17  2  0
 16 18  1  0
 16 19  2  0
 17 19  1  0
 18 20  1  0
 20 21  1  0
 20 22  2  0
  2 23  1  0
  3 24  1  6
  3 25  1  0
  7 26  1  0
  8 27  1  1
  8 28  1  0
 10 29  1  0
 11 30  1  0
 12 31  1  0
 14 32  1  0
 15 33  1  0
 17 34  1  0
 18 35  1  0
 21 36  1  1
 21 37  1  0
 21 38  1  0
M  END
