
     RDKit          3D

 50 52  0  0  0  0  0  0  0  0999 V2000
    9.3290    0.3620   21.5570 O   0  0  0  0  0  0  0  0  0  0  0  0
    8.6030   -0.4080   22.1780 C   0  0  0  0  0  0  0  0  0  0  0  0
    9.0860   -0.9380   23.5790 C   0  0  2  0  0  0  0  0  0  0  0  0
    7.3590   -0.7640   21.6730 N   0  0  0  0  0  0  0  0  0  0  0  0
   10.5440   -0.4120   23.6140 C   0  0  2  0  0  0  0  0  0  0  0  0
    6.7410   -0.1840   20.5220 C   0  0  0  0  0  0  0  0  0  0  0  0
    8.9830   -2.4470   23.9840 N   0  0  0  0  0  0  0  0  0  0  0  0
   11.3650   -0.7810   22.3750 C   0  0  1  0  0  0  0  0  0  0  0  0
   11.2390   -0.7260   24.7770 C   0  0  2  0  0  0  0  0  0  0  0  0
    5.6340    0.6530   20.6960 C   0  0  0  0  0  0  0  0  0  0  0  0
    7.1490   -0.3790   19.2080 C   0  0  0  0  0  0  0  0  0  0  0  0
    7.9050   -2.6960   24.9850 C   0  0  2  0  0  0  0  0  0  0  0  0
   10.2380   -3.0130   24.5830 C   0  0  1  0  0  0  0  0  0  0  0  0
   12.3940   -1.8510   22.6780 C   0  0  1  0  0  0  0  0  0  0  0  0
   12.5870   -0.4570   24.7510 C   0  0  2  0  0  0  0  0  0  0  0  0
    4.9600    1.2850   19.4850 C   0  0  0  0  0  0  0  0  0  0  0  0
    6.5660    0.1770   18.1100 N   0  0  0  0  0  0  0  0  0  0  0  0
    7.7510   -4.0180   25.4180 C   0  0  2  0  0  0  0  0  0  0  0  0
   10.2100   -4.0940   25.4900 C   0  0  2  0  0  0  0  0  0  0  0  0
   13.3100   -1.2620   23.7150 C   0  0  1  0  0  0  0  0  0  0  0  0
    5.5030    0.9830   18.2570 C   0  0  0  0  0  0  0  0  0  0  0  0
    8.8720   -4.5080   26.1090 C   0  0  1  0  0  0  0  0  0  0  0  0
    8.8340   -4.1700   27.2900 O   0  0  0  0  0  0  0  0  0  0  0  0
    8.5210   -0.3630   24.3230 H   0  0  0  0  0  0  0  0  0  0  0  0
    6.7720   -1.2570   22.3390 H   0  0  0  0  0  0  0  0  0  0  0  0
   10.4830    0.6850   23.6390 H   0  0  0  0  0  0  0  0  0  0  0  0
   10.7480   -1.1230   21.5330 H   0  0  0  0  0  0  0  0  0  0  0  0
   11.9040    0.1140   22.0620 H   0  0  0  0  0  0  0  0  0  0  0  0
   11.1550   -1.7950   24.9720 H   0  0  0  0  0  0  0  0  0  0  0  0
   10.7820   -0.2240   25.6310 H   0  0  0  0  0  0  0  0  0  0  0  0
    5.2410    0.8630   21.6880 H   0  0  0  0  0  0  0  0  0  0  0  0
    7.9910   -1.0120   18.9590 H   0  0  0  0  0  0  0  0  0  0  0  0
    6.9600   -2.3790   24.5290 H   0  0  0  0  0  0  0  0  0  0  0  0
    8.0240   -2.0650   25.8700 H   0  0  0  0  0  0  0  0  0  0  0  0
   10.9600   -3.2530   23.7980 H   0  0  0  0  0  0  0  0  0  0  0  0
   10.7260   -2.1830   25.1060 H   0  0  0  0  0  0  0  0  0  0  0  0
   11.8720   -2.7340   23.0640 H   0  0  0  0  0  0  0  0  0  0  0  0
   12.9290   -2.1520   21.7650 H   0  0  0  0  0  0  0  0  0  0  0  0
   13.0420   -0.6360   25.7290 H   0  0  0  0  0  0  0  0  0  0  0  0
   12.7200    0.6040   24.5210 H   0  0  0  0  0  0  0  0  0  0  0  0
    4.1000    1.9380   19.5780 H   0  0  0  0  0  0  0  0  0  0  0  0
    7.5420   -4.6720   24.5590 H   0  0  0  0  0  0  0  0  0  0  0  0
    6.8610   -4.0960   26.0540 H   0  0  0  0  0  0  0  0  0  0  0  0
   10.9190   -3.8640   26.2900 H   0  0  0  0  0  0  0  0  0  0  0  0
   10.6300   -4.9800   25.0140 H   0  0  0  0  0  0  0  0  0  0  0  0
   13.9230   -2.0420   24.1790 H   0  0  0  0  0  0  0  0  0  0  0  0
   13.9760   -0.5910   23.1830 H   0  0  0  0  0  0  0  0  0  0  0  0
    5.0860    1.3930   17.3410 H   0  0  0  0  0  0  0  0  0  0  0  0
    8.8160   -5.6050   26.1080 H   0  0  0  0  0  0  0  0  0  0  0  0
    9.6260   -4.5400   27.7170 H   0  0  0  0  0  0  0  0  0  0  0  0
  1  2  2  0
  2  3  1  0
  2  4  1  0
  3  5  1  0
  4  6  1  0
  3  7  1  0
  5  8  1  0
  5  9  1  0
  6 10  2  0
  6 11  1  0
  7 12  1  0
  7 13  1  0
  8 14  1  0
  9 15  1  0
 10 16  1  0
 11 17  2  0
 12 18  1  0
 13 19  1  0
 14 20  1  0
 15 20  1  0
 16 21  2  0
 17 21  1  0
 18 22  1  0
 19 22  1  0
 22 23  1  0
  3 24  1  1
  4 25  1  0
  5 26  1  1
  8 27  1  6
  8 28  1  0
  9 29  1  1
  9 30  1  0
 10 31  1  0
 11 32  1  0
 12 33  1  6
 12 34  1  0
 13 35  1  6
 13 36  1  0
 14 37  1  1
 14 38  1  0
 15 39  1  1
 15 40  1  0
 16 41  1  0
 18 42  1  6
 18 43  1  0
 19 44  1  1
 19 45  1  0
 20 46  1  1
 20 47  1  0
 21 48  1  0
 22 49  1  1
 23 50  1  0
M  END
