
     RDKit          3D

 43 44  0  0  0  0  0  0  0  0999 V2000
    8.9920    1.5630   21.2010 O   0  0  0  0  0  0  0  0  0  0  0  0
    8.4600    0.5530   21.6740 C   0  0  0  0  0  0  0  0  0  0  0  0
    8.8660   -0.0570   22.9800 C   0  0  1  0  0  0  0  0  0  0  0  0
    7.4450   -0.1790   21.1340 N   0  0  0  0  0  0  0  0  0  0  0  0
   10.3550   -0.2330   23.1000 C   0  0  2  0  0  0  0  0  0  0  0  0
    6.6400    0.2960   20.1240 C   0  0  0  0  0  0  0  0  0  0  0  0
   10.9180   -1.3980   22.2810 C   0  0  1  0  0  0  0  0  0  0  0  0
   10.7820   -0.3880   24.5350 C   0  0  2  0  0  0  0  0  0  0  0  0
    5.5130    1.0820   20.3130 C   0  0  0  0  0  0  0  0  0  0  0  0
    6.9850   -0.0250   18.8360 C   0  0  0  0  0  0  0  0  0  0  0  0
    9.9070    0.2300   25.5380 N   0  0  0  0  0  0  0  0  0  0  0  0
   12.3980   -1.6200   22.5910 C   0  0  1  0  0  0  0  0  0  0  0  0
   12.2390    0.0960   24.5520 C   0  0  2  0  0  0  0  0  0  0  0  0
    4.7940    1.5130   19.2010 C   0  0  0  0  0  0  0  0  0  0  0  0
    6.3160    0.3770   17.7530 N   0  0  0  0  0  0  0  0  0  0  0  0
    8.7620   -0.4900   26.0660 C   0  0  2  0  0  0  0  0  0  0  0  0
   13.1810   -1.6020   21.3970 C   0  0  0  0  0  0  0  0  0  0  0  0
   13.0720   -0.5420   23.4550 C   0  0  1  0  0  0  0  0  0  0  0  0
    5.2360    1.1390   17.9590 C   0  0  0  0  0  0  0  0  0  0  0  0
    8.5980   -0.2500   27.5570 C   0  0  1  0  0  0  0  0  0  0  0  0
   13.8370   -1.4840   20.5000 N   0  0  0  0  0  0  0  0  0  0  0  0
    8.4970    0.5920   23.7820 H   0  0  0  0  0  0  0  0  0  0  0  0
    8.3680   -1.0310   23.0790 H   0  0  0  0  0  0  0  0  0  0  0  0
    7.0500   -0.9140   21.7110 H   0  0  0  0  0  0  0  0  0  0  0  0
   10.7890    0.6730   22.6630 H   0  0  0  0  0  0  0  0  0  0  0  0
   10.3460   -2.3110   22.4900 H   0  0  0  0  0  0  0  0  0  0  0  0
   10.7970   -1.2170   21.2150 H   0  0  0  0  0  0  0  0  0  0  0  0
   10.7230   -1.4630   24.6780 H   0  0  0  0  0  0  0  0  0  0  0  0
    5.1690    1.3800   21.2960 H   0  0  0  0  0  0  0  0  0  0  0  0
    7.8530   -0.6450   18.6250 H   0  0  0  0  0  0  0  0  0  0  0  0
    9.7120    1.2200   25.3540 H   0  0  0  0  0  0  0  0  0  0  0  0
   12.5150   -2.6200   23.0170 H   0  0  0  0  0  0  0  0  0  0  0  0
   12.7140   -0.1160   25.5010 H   0  0  0  0  0  0  0  0  0  0  0  0
   12.2740    1.1690   24.3670 H   0  0  0  0  0  0  0  0  0  0  0  0
    3.9080    2.1330   19.3120 H   0  0  0  0  0  0  0  0  0  0  0  0
    8.8320   -1.5630   25.8600 H   0  0  0  0  0  0  0  0  0  0  0  0
    7.8750   -0.0900   25.5610 H   0  0  0  0  0  0  0  0  0  0  0  0
   13.9410   -0.9950   23.9090 H   0  0  0  0  0  0  0  0  0  0  0  0
   13.4710    0.2600   22.8200 H   0  0  0  0  0  0  0  0  0  0  0  0
    4.7090    1.4600   17.0700 H   0  0  0  0  0  0  0  0  0  0  0  0
    9.4350    0.3280   27.9620 H   0  0  0  0  0  0  0  0  0  0  0  0
    7.6690    0.2980   27.7400 H   0  0  0  0  0  0  0  0  0  0  0  0
    8.5410   -1.1970   28.1070 H   0  0  0  0  0  0  0  0  0  0  0  0
  1  2  2  0
  2  3  1  0
  2  4  1  0
  3  5  1  0
  4  6  1  0
  5  7  1  0
  5  8  1  0
  6  9  2  0
  6 10  1  0
  8 11  1  0
  7 12  1  0
  8 13  1  0
  9 14  1  0
 10 15  2  0
 11 16  1  0
 12 17  1  0
 12 18  1  0
 13 18  1  0
 14 19  2  0
 15 19  1  0
 16 20  1  0
 17 21  3  0
  3 22  1  1
  3 23  1  0
  4 24  1  0
  5 25  1  6
  7 26  1  1
  7 27  1  0
  8 28  1  1
  9 29  1  0
 10 30  1  0
 11 31  1  0
 12 32  1  1
 13 33  1  1
 13 34  1  0
 14 35  1  0
 16 36  1  1
 16 37  1  0
 18 38  1  1
 18 39  1  0
 19 40  1  0
 20 41  1  1
 20 42  1  0
 20 43  1  0
M  END
