
     RDKit          3D

 36 37  0  0  0  0  0  0  0  0999 V2000
   21.8290   21.4700    4.7920 O   0  0  0  0  0  0  0  0  0  0  0  0
   21.8710   20.3930    3.8550 C   0  0  1  0  0  0  0  0  0  0  0  0
   20.7100   19.4210    4.0990 C   0  0  2  0  0  0  0  0  0  0  0  0
   19.9670   19.8850    5.2780 O   0  0  0  0  0  0  0  0  0  0  0  0
   21.2240   17.9610    4.1350 C   0  0  1  0  0  0  0  0  0  0  0  0
   20.3480   19.3120    6.5460 C   0  0  1  0  0  0  0  0  0  0  0  0
   21.4560   17.4080    5.4860 N   0  0  0  0  0  0  0  0  0  0  0  0
   22.5570   16.4390    5.5250 C   0  0  1  0  0  0  0  0  0  0  0  0
   21.6260   18.4870    6.4700 C   0  0  1  0  0  0  0  0  0  0  0  0
   22.1240   15.0850    6.0570 C   0  0  0  0  0  0  0  0  0  0  0  0
   22.4110   13.9560    5.2760 C   0  0  0  0  0  0  0  0  0  0  0  0
   21.4580   14.9140    7.2840 C   0  0  0  0  0  0  0  0  0  0  0  0
   21.1540   16.0810    8.1620 C   0  0  1  0  0  0  0  0  0  0  0  0
   22.0490   12.6880    5.7000 C   0  0  0  0  0  0  0  0  0  0  0  0
   21.0940   13.6180    7.6710 C   0  0  0  0  0  0  0  0  0  0  0  0
   20.4390   13.3860    8.8250 O   0  0  0  0  0  0  0  0  0  0  0  0
   21.3920   12.5320    6.8950 C   0  0  0  0  0  0  0  0  0  0  0  0
   21.5670   21.0610    5.6390 H   0  0  0  0  0  0  0  0  0  0  0  0
   21.8220   20.8210    2.8510 H   0  0  0  0  0  0  0  0  0  0  0  0
   22.8370   19.8930    3.9770 H   0  0  0  0  0  0  0  0  0  0  0  0
   20.0210   19.5190    3.2510 H   0  0  0  0  0  0  0  0  0  0  0  0
   20.5690   17.3130    3.5430 H   0  0  0  0  0  0  0  0  0  0  0  0
   22.1950   17.9300    3.6240 H   0  0  0  0  0  0  0  0  0  0  0  0
   20.4710   20.1380    7.2530 H   0  0  0  0  0  0  0  0  0  0  0  0
   19.5090   18.7000    6.9060 H   0  0  0  0  0  0  0  0  0  0  0  0
   22.9280   16.2600    4.5090 H   0  0  0  0  0  0  0  0  0  0  0  0
   23.4040   16.8510    6.0830 H   0  0  0  0  0  0  0  0  0  0  0  0
   22.4620   19.1300    6.1770 H   0  0  0  0  0  0  0  0  0  0  0  0
   21.8340   18.0850    7.4680 H   0  0  0  0  0  0  0  0  0  0  0  0
   22.9270   14.0710    4.3240 H   0  0  0  0  0  0  0  0  0  0  0  0
   20.2290   16.5680    7.8320 H   0  0  0  0  0  0  0  0  0  0  0  0
   21.0620   15.7560    9.2030 H   0  0  0  0  0  0  0  0  0  0  0  0
   21.9400   16.8410    8.1440 H   0  0  0  0  0  0  0  0  0  0  0  0
   22.2810   11.8220    5.0850 H   0  0  0  0  0  0  0  0  0  0  0  0
   19.7710   14.0740    8.9420 H   0  0  0  0  0  0  0  0  0  0  0  0
   21.1190   11.5480    7.2110 H   0  0  0  0  0  0  0  0  0  0  0  0
  1  2  1  0
  2  3  1  0
  3  4  1  0
  3  5  1  0
  4  6  1  0
  5  7  1  0
  7  8  1  0
  6  9  1  0
  7  9  1  0
  8 10  1  0
 10 11  2  0
 10 12  1  0
 12 13  1  0
 11 14  1  0
 12 15  2  0
 15 16  1  0
 14 17  2  0
 15 17  1  0
  1 18  1  0
  2 19  1  6
  2 20  1  0
  3 21  1  6
  5 22  1  6
  5 23  1  0
  6 24  1  1
  6 25  1  0
  8 26  1  6
  8 27  1  0
  9 28  1  6
  9 29  1  0
 11 30  1  0
 13 31  1  6
 13 32  1  0
 13 33  1  0
 14 34  1  0
 16 35  1  0
 17 36  1  0
M  END
