
     RDKit          3D

 31 31  0  0  0  0  0  0  0  0999 V2000
    6.6160   -0.1030   -5.5880 C   0  0  0  0  0  0  0  0  0  0  0  0
    5.9630    1.2020   -6.4930 S   0  0  0  0  0  0  0  0  0  0  0  0
    6.4210    2.2840   -5.3190 N   0  0  0  0  0  0  0  0  0  0  0  0
    6.4670   -1.3800   -6.0620 N   0  0  0  0  0  0  0  0  0  0  0  0
    5.7240    2.8160   -6.4880 O   0  0  0  0  0  0  0  0  0  0  0  0
    5.1960    1.1020   -8.0430 C   0  0  1  0  0  0  0  0  0  0  0  0
    5.5490   -2.3330   -5.7000 C   0  0  0  0  0  0  0  0  0  0  0  0
    7.2580   -1.8290   -6.9940 N   0  0  0  0  0  0  0  0  0  0  0  0
    5.7460   -3.4310   -6.4280 C   0  0  0  0  0  0  0  0  0  0  0  0
    6.8150   -3.0840   -7.2120 C   0  0  0  0  0  0  0  0  0  0  0  0
    7.4710   -3.9560   -8.2050 C   0  0  2  0  0  0  0  0  0  0  0  0
    8.8970   -3.4820   -8.4130 C   0  0  1  0  0  0  0  0  0  0  0  0
    9.1470   -3.3110   -9.7170 F   0  0  0  0  0  0  0  0  0  0  0  0
    9.2690   -2.2480   -7.5800 C   0  0  1  0  0  0  0  0  0  0  0  0
    9.3430   -0.8670   -8.0580 C   0  0  1  0  0  0  0  0  0  0  0  0
    7.1060    0.0640   -4.6180 H   0  0  0  0  0  0  0  0  0  0  0  0
    7.3960    2.1040   -5.1000 H   0  0  0  0  0  0  0  0  0  0  0  0
    5.9370    2.0250   -4.4560 H   0  0  0  0  0  0  0  0  0  0  0  0
    4.3320    1.7680   -8.0580 H   0  0  0  0  0  0  0  0  0  0  0  0
    5.9110    1.4130   -8.8030 H   0  0  0  0  0  0  0  0  0  0  0  0
    4.8830    0.0720   -8.2320 H   0  0  0  0  0  0  0  0  0  0  0  0
    4.8230   -2.1710   -4.9620 H   0  0  0  0  0  0  0  0  0  0  0  0
    5.1980   -4.3600   -6.3960 H   0  0  0  0  0  0  0  0  0  0  0  0
    6.9000   -3.9950   -9.1180 H   0  0  0  0  0  0  0  0  0  0  0  0
    7.4810   -4.9790   -7.8190 H   0  0  0  0  0  0  0  0  0  0  0  0
    9.5830   -4.2760   -8.1450 H   0  0  0  0  0  0  0  0  0  0  0  0
    8.6160   -2.2240   -6.7130 H   0  0  0  0  0  0  0  0  0  0  0  0
   10.2590   -2.4180   -7.2160 H   0  0  0  0  0  0  0  0  0  0  0  0
    8.3640   -0.4070   -8.1440 H   0  0  0  0  0  0  0  0  0  0  0  0
    9.9330   -0.2980   -7.3480 H   0  0  0  0  0  0  0  0  0  0  0  0
    9.8870   -0.8040   -8.9900 H   0  0  0  0  0  0  0  0  0  0  0  0
  1  2  2  0
  2  3  1  0
  1  4  1  0
  2  5  2  0
  2  6  1  0
  4  7  1  0
  4  8  1  0
  7  9  2  0
  8 10  2  0
  9 10  1  0
 10 11  1  0
 11 12  1  0
 12 13  1  0
 12 14  1  0
 14 15  1  0
  1 16  1  0
  3 17  1  0
  3 18  1  0
  6 19  1  1
  6 20  1  0
  6 21  1  0
  7 22  1  0
  9 23  1  0
 11 24  1  6
 11 25  1  0
 12 26  1  1
 14 27  1  1
 14 28  1  0
 15 29  1  6
 15 30  1  0
 15 31  1  0
M  END
