
     RDKit          3D

 44 46  0  0  0  0  0  0  0  0999 V2000
    7.8520    0.4340   24.7000 N   0  0  0  0  0  0  0  0  0  0  0  0
    7.5110    1.3260   24.0620 C   0  0  0  0  0  0  0  0  0  0  0  0
    8.2840    2.1260   23.5450 O   0  0  0  0  0  0  0  0  0  0  0  0
    9.0880    0.5120   25.3940 C   0  0  1  0  0  0  0  0  0  0  0  0
    6.1630    1.4000   23.9450 N   0  0  0  0  0  0  0  0  0  0  0  0
   10.1910    0.1510   24.4610 C   0  0  0  0  0  0  0  0  0  0  0  0
    5.4620    1.2780   22.6680 C   0  0  2  0  0  0  0  0  0  0  0  0
    5.3770    1.0920   25.1460 C   0  0  1  0  0  0  0  0  0  0  0  0
   10.9850    1.1360   23.8500 C   0  0  0  0  0  0  0  0  0  0  0  0
   10.4350   -1.2980   24.1850 C   0  0  0  0  0  0  0  0  0  0  0  0
    4.0790    1.9040   22.7400 C   0  0  2  0  0  0  0  0  0  0  0  0
    4.0040    0.5680   24.7570 C   0  0  2  0  0  0  0  0  0  0  0  0
   12.0410    0.8280   23.0180 C   0  0  0  0  0  0  0  0  0  0  0  0
   11.4390   -1.5500   23.3290 C   0  0  0  0  0  0  0  0  0  0  0  0
   10.6770    2.4860   24.0850 C   0  0  0  0  0  0  0  0  0  0  0  0
    3.3010    1.4320   23.8480 O   0  0  0  0  0  0  0  0  0  0  0  0
   12.2170   -0.5650   22.7570 C   0  0  0  0  0  0  0  0  0  0  0  0
   12.8050    1.9070   22.5130 C   0  0  0  0  0  0  0  0  0  0  0  0
   11.4560    3.6100   23.4950 C   0  0  0  0  0  0  0  0  0  0  0  0
   13.1520   -1.1350   21.8660 C   0  0  0  0  0  0  0  0  0  0  0  0
   10.9650    5.2940   23.7960 S   0  0  2  0  0  0  0  0  0  0  0  0
   12.5560    3.2680   22.7130 C   0  0  0  0  0  0  0  0  0  0  0  0
   13.7120   -1.6360   21.0070 N   0  0  0  0  0  0  0  0  0  0  0  0
   10.9570    5.6420   25.1840 O   0  0  0  0  0  0  0  0  0  0  0  0
    9.7800    5.5190   22.9980 O   0  0  0  0  0  0  0  0  0  0  0  0
   12.2140    6.2080   23.1390 N   0  0  0  0  0  0  0  0  0  0  0  0
    7.5500   -0.4750   24.3810 H   0  0  0  0  0  0  0  0  0  0  0  0
    9.2230    1.5220   25.7850 H   0  0  0  0  0  0  0  0  0  0  0  0
    9.0360   -0.1760   26.2450 H   0  0  0  0  0  0  0  0  0  0  0  0
    5.3760    0.2210   22.3840 H   0  0  0  0  0  0  0  0  0  0  0  0
    6.0720    1.7900   21.9180 H   0  0  0  0  0  0  0  0  0  0  0  0
    5.9690    0.3570   25.7110 H   0  0  0  0  0  0  0  0  0  0  0  0
    5.2650    1.9780   25.7760 H   0  0  0  0  0  0  0  0  0  0  0  0
    9.8510   -2.1010   24.6220 H   0  0  0  0  0  0  0  0  0  0  0  0
    3.5130    1.7080   21.8200 H   0  0  0  0  0  0  0  0  0  0  0  0
    4.1650    2.9930   22.8400 H   0  0  0  0  0  0  0  0  0  0  0  0
    3.3850    0.4610   25.6580 H   0  0  0  0  0  0  0  0  0  0  0  0
    4.0920   -0.4230   24.2970 H   0  0  0  0  0  0  0  0  0  0  0  0
   11.6470   -2.5960   23.0740 H   0  0  0  0  0  0  0  0  0  0  0  0
    9.8300    2.7480   24.7150 H   0  0  0  0  0  0  0  0  0  0  0  0
   13.6350    1.6950   21.9280 H   0  0  0  0  0  0  0  0  0  0  0  0
   13.2010    4.0180   22.2600 H   0  0  0  0  0  0  0  0  0  0  0  0
   13.0240    6.2810   23.7840 H   0  0  0  0  0  0  0  0  0  0  0  0
   11.8550    7.1100   22.8220 H   0  0  0  0  0  0  0  0  0  0  0  0
  1  2  1  0
  2  3  2  0
  1  4  1  0
  2  5  1  0
  4  6  1  0
  5  7  1  0
  5  8  1  0
  6  9  1  0
  6 10  2  0
  7 11  1  0
  8 12  1  0
  9 13  2  0
 10 14  1  0
  9 15  1  0
 11 16  1  0
 12 16  1  0
 13 17  1  0
 14 17  2  0
 13 18  1  0
 15 19  2  0
 17 20  1  0
 19 21  1  0
 18 22  2  0
 19 22  1  0
 20 23  3  0
 21 24  2  0
 21 25  2  0
 21 26  1  6
  1 27  1  0
  4 28  1  1
  4 29  1  0
  7 30  1  6
  7 31  1  0
  8 32  1  1
  8 33  1  0
 10 34  1  0
 11 35  1  6
 11 36  1  0
 12 37  1  1
 12 38  1  0
 14 39  1  0
 15 40  1  0
 18 41  1  0
 22 42  1  0
 26 43  1  0
 26 44  1  0
M  END
