
     RDKit          3D

 48 50  0  0  0  0  0  0  0  0999 V2000
    8.2740    0.8360   24.6070 N   0  0  0  0  0  0  0  0  0  0  0  0
    7.3380    1.8070   24.0530 C   0  0  0  0  0  0  0  0  0  0  0  0
    7.7240    2.9030   23.6470 O   0  0  0  0  0  0  0  0  0  0  0  0
    9.6570    1.1710   24.7520 C   0  0  1  0  0  0  0  0  0  0  0  0
    6.0280    1.4050   24.0270 N   0  0  0  0  0  0  0  0  0  0  0  0
   10.5280    0.3420   23.8720 C   0  0  0  0  0  0  0  0  0  0  0  0
    5.3950    1.2180   22.7220 C   0  0  2  0  0  0  0  0  0  0  0  0
    5.3060    0.8300   25.1720 C   0  0  1  0  0  0  0  0  0  0  0  0
   11.9250    0.4990   23.9680 C   0  0  0  0  0  0  0  0  0  0  0  0
   10.0200   -0.6030   22.9440 C   0  0  0  0  0  0  0  0  0  0  0  0
    8.6680   -0.7950   22.7340 N   0  0  0  0  0  0  0  0  0  0  0  0
    3.9100    1.5880   22.7730 C   0  0  2  0  0  0  0  0  0  0  0  0
    4.0000    0.1760   24.7070 C   0  0  2  0  0  0  0  0  0  0  0  0
   12.8460   -0.2350   23.2170 C   0  0  0  0  0  0  0  0  0  0  0  0
   10.9610   -1.4160   22.1360 C   0  0  0  0  0  0  0  0  0  0  0  0
    8.1070   -0.1550   21.6540 C   0  0  0  0  0  0  0  0  0  0  0  0
    3.2150    1.0670   23.9090 O   0  0  0  0  0  0  0  0  0  0  0  0
   12.2970   -1.2860   22.2300 C   0  0  0  0  0  0  0  0  0  0  0  0
   13.0400   -2.1260   21.4060 C   0  0  0  0  0  0  0  0  0  0  0  0
    8.5850    0.8690   21.1810 O   0  0  0  0  0  0  0  0  0  0  0  0
    6.9740   -0.7520   21.1400 N   0  0  0  0  0  0  0  0  0  0  0  0
   13.5170   -2.8900   20.7190 N   0  0  0  0  0  0  0  0  0  0  0  0
    6.3350   -0.1180   20.0670 C   0  0  0  0  0  0  0  0  0  0  0  0
    5.0870    0.4740   20.2430 C   0  0  0  0  0  0  0  0  0  0  0  0
    6.8950   -0.0350   18.8310 C   0  0  0  0  0  0  0  0  0  0  0  0
    4.4710    1.1290   19.1760 C   0  0  0  0  0  0  0  0  0  0  0  0
    6.3310    0.5870   17.7820 N   0  0  0  0  0  0  0  0  0  0  0  0
    5.1380    1.1590   17.9750 C   0  0  0  0  0  0  0  0  0  0  0  0
    8.0750   -0.1220   24.3370 H   0  0  0  0  0  0  0  0  0  0  0  0
    9.7500    2.2300   24.4990 H   0  0  0  0  0  0  0  0  0  0  0  0
    9.9160    0.9940   25.7860 H   0  0  0  0  0  0  0  0  0  0  0  0
    5.4760    0.1420   22.5290 H   0  0  0  0  0  0  0  0  0  0  0  0
    6.0120    1.7120   21.9740 H   0  0  0  0  0  0  0  0  0  0  0  0
    6.0060    0.2230   25.7400 H   0  0  0  0  0  0  0  0  0  0  0  0
    5.0520    1.6900   25.8010 H   0  0  0  0  0  0  0  0  0  0  0  0
   12.4190    1.1940   24.6280 H   0  0  0  0  0  0  0  0  0  0  0  0
    8.0750   -0.8000   23.5560 H   0  0  0  0  0  0  0  0  0  0  0  0
    3.3910    1.2240   21.8800 H   0  0  0  0  0  0  0  0  0  0  0  0
    3.7930    2.6780   22.7950 H   0  0  0  0  0  0  0  0  0  0  0  0
    3.3930   -0.0640   25.5860 H   0  0  0  0  0  0  0  0  0  0  0  0
    4.0730   -0.7500   24.1360 H   0  0  0  0  0  0  0  0  0  0  0  0
   13.9060   -0.0530   23.3500 H   0  0  0  0  0  0  0  0  0  0  0  0
   10.4790   -2.1290   21.4510 H   0  0  0  0  0  0  0  0  0  0  0  0
    6.3750   -1.2240   21.8070 H   0  0  0  0  0  0  0  0  0  0  0  0
    4.5790    0.4410   21.1960 H   0  0  0  0  0  0  0  0  0  0  0  0
    7.8540   -0.4720   18.6050 H   0  0  0  0  0  0  0  0  0  0  0  0
    3.5020    1.6010   19.2860 H   0  0  0  0  0  0  0  0  0  0  0  0
    4.7180    1.6570   17.1120 H   0  0  0  0  0  0  0  0  0  0  0  0
  1  2  1  0
  2  3  2  0
  1  4  1  0
  2  5  1  0
  4  6  1  0
  5  7  1  0
  5  8  1  0
  6  9  2  0
  6 10  1  0
 10 11  1  0
  7 12  1  0
  8 13  1  0
  9 14  1  0
 10 15  2  0
 11 16  1  0
 12 17  1  0
 13 17  1  0
 14 18  2  0
 15 18  1  0
 18 19  1  0
 16 20  2  0
 16 21  1  0
 19 22  3  0
 21 23  1  0
 23 24  2  0
 23 25  1  0
 24 26  1  0
 25 27  2  0
 26 28  2  0
 27 28  1  0
  1 29  1  0
  4 30  1  6
  4 31  1  0
  7 32  1  6
  7 33  1  0
  8 34  1  1
  8 35  1  0
  9 36  1  0
 11 37  1  0
 12 38  1  6
 12 39  1  0
 13 40  1  1
 13 41  1  0
 14 42  1  0
 15 43  1  0
 21 44  1  0
 24 45  1  0
 25 46  1  0
 26 47  1  0
 28 48  1  0
M  END
