
     RDKit          3D

 24 24  0  0  0  0  0  0  0  0999 V2000
   13.2060   -1.3970   21.7330 N   0  0  0  0  0  0  0  0  0  0  0  0
   12.4350   -1.3590   22.6220 C   0  0  1  0  0  0  0  0  0  0  0  0
   13.0010   -0.7260   23.9270 C   0  0  2  0  0  0  0  0  0  0  0  0
   11.4060   -0.2440   22.5160 C   0  0  2  0  0  0  0  0  0  0  0  0
   13.5310   -1.6190   24.8730 O   0  0  0  0  0  0  0  0  0  0  0  0
   11.9090   -0.1230   24.5980 C   0  0  1  0  0  0  0  0  0  0  0  0
   12.1340    1.0910   22.7300 C   0  0  2  0  0  0  0  0  0  0  0  0
   10.6800   -0.4280   23.8020 C   0  0  2  0  0  0  0  0  0  0  0  0
   13.3710   -2.9520   24.4870 C   0  0  1  0  0  0  0  0  0  0  0  0
   13.8950   -2.1310   21.7700 H   0  0  0  0  0  0  0  0  0  0  0  0
   12.6930   -1.5460   20.8660 H   0  0  0  0  0  0  0  0  0  0  0  0
   11.9810   -2.3440   22.7610 H   0  0  0  0  0  0  0  0  0  0  0  0
   13.7400    0.0340   23.6910 H   0  0  0  0  0  0  0  0  0  0  0  0
   10.7340   -0.2540   21.6540 H   0  0  0  0  0  0  0  0  0  0  0  0
   11.8330   -0.4900   25.6240 H   0  0  0  0  0  0  0  0  0  0  0  0
   12.1030    0.9510   24.6190 H   0  0  0  0  0  0  0  0  0  0  0  0
   11.5200    1.8720   22.2830 H   0  0  0  0  0  0  0  0  0  0  0  0
   13.1340    1.0830   22.2990 H   0  0  0  0  0  0  0  0  0  0  0  0
   12.2350    1.3220   23.7980 H   0  0  0  0  0  0  0  0  0  0  0  0
   10.2710   -1.4280   23.9740 H   0  0  0  0  0  0  0  0  0  0  0  0
    9.9050    0.3320   23.9470 H   0  0  0  0  0  0  0  0  0  0  0  0
   13.7530   -3.5840   25.2930 H   0  0  0  0  0  0  0  0  0  0  0  0
   12.3100   -3.1940   24.3660 H   0  0  0  0  0  0  0  0  0  0  0  0
   13.9270   -3.1660   23.5680 H   0  0  0  0  0  0  0  0  0  0  0  0
  1  2  1  0
  2  3  1  0
  2  4  1  0
  3  5  1  0
  3  6  1  0
  4  7  1  0
  4  8  1  0
  6  8  1  0
  5  9  1  0
  1 10  1  0
  1 11  1  0
  2 12  1  1
  3 13  1  6
  4 14  1  6
  6 15  1  1
  6 16  1  0
  7 17  1  6
  7 18  1  0
  7 19  1  0
  8 20  1  6
  8 21  1  0
  9 22  1  1
  9 23  1  0
  9 24  1  0
M  END
