
     RDKit          3D

 53 54  0  0  0  0  0  0  0  0999 V2000
    6.4680   -5.3550   26.6610 C   0  0  1  0  0  0  0  0  0  0  0  0
    8.1460   -4.7950   26.4530 S   0  0  2  0  0  0  0  0  0  0  0  0
    9.0000   -5.8900   26.0720 O   0  0  0  0  0  0  0  0  0  0  0  0
    8.4750   -3.9460   27.5630 O   0  0  0  0  0  0  0  0  0  0  0  0
    8.0300   -3.7810   25.1330 N   0  0  0  0  0  0  0  0  0  0  0  0
    9.3060   -3.2650   24.6550 C   0  0  1  0  0  0  0  0  0  0  0  0
    9.0430   -2.4240   23.4290 C   0  0  1  0  0  0  0  0  0  0  0  0
   10.2210   -1.5170   23.1170 C   0  0  2  0  0  0  0  0  0  0  0  0
   11.4870   -2.3350   22.8900 C   0  0  1  0  0  0  0  0  0  0  0  0
   10.5470   -0.3860   24.1190 C   0  0  2  0  0  0  0  0  0  0  0  0
    9.3240   -0.1340   24.9630 C   0  0  1  0  0  0  0  0  0  0  0  0
   12.6000   -1.3470   22.7700 C   0  0  1  0  0  0  0  0  0  0  0  0
   11.2550    0.4700   23.3540 C   0  0  1  0  0  0  0  0  0  0  0  0
   11.9420   -0.1900   22.3790 C   0  0  1  0  0  0  0  0  0  0  0  0
   10.3380    1.7380   22.9660 C   0  0  2  0  0  0  0  0  0  0  0  0
   12.3610    1.1690   23.9280 C   0  0  2  0  0  0  0  0  0  0  0  0
   12.9980    1.8650   22.7700 C   0  0  1  0  0  0  0  0  0  0  0  0
   10.8860    3.0540   22.7120 C   0  0  1  0  0  0  0  0  0  0  0  0
   10.1720    4.5180   23.5340 S   0  0  2  0  0  0  0  0  0  0  0  0
   12.3990    3.0940   22.5860 C   0  0  1  0  0  0  0  0  0  0  0  0
    9.7740    4.2080   24.8710 O   0  0  0  0  0  0  0  0  0  0  0  0
    9.1960    5.1540   22.6950 O   0  0  0  0  0  0  0  0  0  0  0  0
   11.4070    5.6370   23.6680 N   0  0  0  0  0  0  0  0  0  0  0  0
    5.8960   -4.6130   27.2310 H   0  0  0  0  0  0  0  0  0  0  0  0
    5.9950   -5.4160   25.6740 H   0  0  0  0  0  0  0  0  0  0  0  0
    6.4660   -6.3320   27.1490 H   0  0  0  0  0  0  0  0  0  0  0  0
    7.2170   -3.1820   25.2180 H   0  0  0  0  0  0  0  0  0  0  0  0
    9.7520   -2.6540   25.4480 H   0  0  0  0  0  0  0  0  0  0  0  0
    9.9830   -4.0830   24.4090 H   0  0  0  0  0  0  0  0  0  0  0  0
    8.8770   -3.0890   22.5720 H   0  0  0  0  0  0  0  0  0  0  0  0
    8.1170   -1.8460   23.5500 H   0  0  0  0  0  0  0  0  0  0  0  0
    9.9710   -1.0390   22.1570 H   0  0  0  0  0  0  0  0  0  0  0  0
   11.6910   -3.0510   23.6950 H   0  0  0  0  0  0  0  0  0  0  0  0
   11.3900   -2.8960   21.9570 H   0  0  0  0  0  0  0  0  0  0  0  0
   11.2610   -0.8030   24.8420 H   0  0  0  0  0  0  0  0  0  0  0  0
    9.6100    0.1870   25.9360 H   0  0  0  0  0  0  0  0  0  0  0  0
    8.6720    0.6300   24.5290 H   0  0  0  0  0  0  0  0  0  0  0  0
    8.7080   -1.0250   25.0740 H   0  0  0  0  0  0  0  0  0  0  0  0
   13.1240   -1.2170   23.7250 H   0  0  0  0  0  0  0  0  0  0  0  0
   13.3400   -1.6560   22.0230 H   0  0  0  0  0  0  0  0  0  0  0  0
   12.6960    0.4570   21.9350 H   0  0  0  0  0  0  0  0  0  0  0  0
   11.2380   -0.5120   21.6180 H   0  0  0  0  0  0  0  0  0  0  0  0
    9.6780    1.9060   23.8310 H   0  0  0  0  0  0  0  0  0  0  0  0
    9.6600    1.4550   22.1500 H   0  0  0  0  0  0  0  0  0  0  0  0
   13.0300    0.4860   24.4490 H   0  0  0  0  0  0  0  0  0  0  0  0
   11.9220    1.8990   24.5570 H   0  0  0  0  0  0  0  0  0  0  0  0
   14.0720    1.8700   22.7450 H   0  0  0  0  0  0  0  0  0  0  0  0
   12.7200    1.2430   21.9360 H   0  0  0  0  0  0  0  0  0  0  0  0
   10.5280    3.2810   21.7020 H   0  0  0  0  0  0  0  0  0  0  0  0
   12.7890    3.7790   23.3430 H   0  0  0  0  0  0  0  0  0  0  0  0
   12.6980    3.5250   21.6230 H   0  0  0  0  0  0  0  0  0  0  0  0
   11.0450    6.5090   24.0530 H   0  0  0  0  0  0  0  0  0  0  0  0
   12.1720    5.2520   24.2210 H   0  0  0  0  0  0  0  0  0  0  0  0
  1  2  1  0
  2  3  2  0
  2  4  2  0
  2  5  1  6
  5  6  1  0
  6  7  1  0
  7  8  1  0
  8  9  1  0
  8 10  1  0
 10 11  1  0
  9 12  1  0
 13 10  1  1
 12 14  1  0
 13 14  1  0
 13 15  1  0
 13 16  1  0
 16 17  1  0
 15 18  1  0
 18 19  1  0
 17 20  1  0
 18 20  1  0
 19 21  2  0
 19 22  2  0
 19 23  1  1
  1 24  1  1
  1 25  1  0
  1 26  1  0
  5 27  1  0
  6 28  1  1
  6 29  1  0
  7 30  1  6
  7 31  1  0
  8 32  1  6
  9 33  1  1
  9 34  1  0
 10 35  1  1
 11 36  1  1
 11 37  1  0
 11 38  1  0
 12 39  1  1
 12 40  1  0
 14 41  1  6
 14 42  1  0
 15 43  1  1
 15 44  1  0
 16 45  1  1
 16 46  1  0
 17 47  1  1
 17 48  1  0
 18 49  1  6
 20 50  1  1
 20 51  1  0
 23 52  1  0
 23 53  1  0
M  END
