
     RDKit          3D

 39 40  0  0  0  0  0  0  0  0999 V2000
    6.6390   -5.0610   26.2550 C   0  0  1  0  0  0  0  0  0  0  0  0
    8.2250   -4.3820   25.7990 S   0  0  2  0  0  0  0  0  0  0  0  0
    9.0030   -5.4570   25.2470 O   0  0  0  0  0  0  0  0  0  0  0  0
    8.6980   -3.6580   26.9410 O   0  0  0  0  0  0  0  0  0  0  0  0
    7.8260   -3.2880   24.5570 N   0  0  0  0  0  0  0  0  0  0  0  0
    8.6910   -2.9890   23.3700 C   0  0  1  0  0  0  0  0  0  0  0  0
    8.9210   -1.4570   23.1370 C   0  0  2  0  0  0  0  0  0  0  0  0
    8.3540   -0.7100   21.8660 C   0  0  0  0  0  0  0  0  0  0  0  0
   10.3810   -1.0750   23.1710 C   0  0  0  0  0  0  0  0  0  0  0  0
    9.0300    0.2120   21.4090 O   0  0  0  0  0  0  0  0  0  0  0  0
    7.1200   -1.0580   21.3130 N   0  0  0  0  0  0  0  0  0  0  0  0
   11.3150   -1.7840   22.3940 C   0  0  0  0  0  0  0  0  0  0  0  0
   10.8080   -0.0090   23.9530 C   0  0  0  0  0  0  0  0  0  0  0  0
   12.6490   -1.4280   22.3940 C   0  0  0  0  0  0  0  0  0  0  0  0
   12.1370    0.3490   23.9490 C   0  0  0  0  0  0  0  0  0  0  0  0
    6.4110   -0.2950   20.3240 C   0  0  0  0  0  0  0  0  0  0  0  0
   13.0430   -0.3530   23.1750 C   0  0  0  0  0  0  0  0  0  0  0  0
    5.2270    0.4250   20.5560 C   0  0  0  0  0  0  0  0  0  0  0  0
    6.9440   -0.2620   19.0260 C   0  0  0  0  0  0  0  0  0  0  0  0
    4.6160    1.1450   19.5200 C   0  0  0  0  0  0  0  0  0  0  0  0
    6.4280    0.4050   17.9590 N   0  0  0  0  0  0  0  0  0  0  0  0
    5.3050    1.0920   18.1750 C   0  0  0  0  0  0  0  0  0  0  0  0
    6.1130   -4.3750   26.9280 H   0  0  0  0  0  0  0  0  0  0  0  0
    6.0410   -5.2120   25.3500 H   0  0  0  0  0  0  0  0  0  0  0  0
    6.7640   -6.0250   26.7630 H   0  0  0  0  0  0  0  0  0  0  0  0
    6.8160   -3.2520   24.3680 H   0  0  0  0  0  0  0  0  0  0  0  0
    9.6650   -3.4770   23.4900 H   0  0  0  0  0  0  0  0  0  0  0  0
    8.2110   -3.4140   22.4790 H   0  0  0  0  0  0  0  0  0  0  0  0
    8.4320   -0.9530   23.9850 H   0  0  0  0  0  0  0  0  0  0  0  0
    6.7610   -1.9850   21.5200 H   0  0  0  0  0  0  0  0  0  0  0  0
   11.0000   -2.6220   21.7750 H   0  0  0  0  0  0  0  0  0  0  0  0
   10.1090    0.5590   24.5660 H   0  0  0  0  0  0  0  0  0  0  0  0
   13.3710   -1.9740   21.7920 H   0  0  0  0  0  0  0  0  0  0  0  0
   12.4650    1.1770   24.5460 H   0  0  0  0  0  0  0  0  0  0  0  0
   14.0640   -0.0540   23.1810 H   0  0  0  0  0  0  0  0  0  0  0  0
    4.7510    0.4480   21.5320 H   0  0  0  0  0  0  0  0  0  0  0  0
    7.8540   -0.8040   18.7910 H   0  0  0  0  0  0  0  0  0  0  0  0
    3.7020    1.7090   19.6710 H   0  0  0  0  0  0  0  0  0  0  0  0
    4.8240    1.6600   17.3700 H   0  0  0  0  0  0  0  0  0  0  0  0
  1  2  1  0
  2  3  2  0
  2  4  2  0
  2  5  1  6
  5  6  1  0
  6  7  1  0
  7  8  1  0
  7  9  1  0
  8 10  2  0
  8 11  1  0
  9 12  2  0
  9 13  1  0
 12 14  1  0
 13 15  2  0
 11 16  1  0
 14 17  2  0
 15 17  1  0
 16 18  2  0
 16 19  1  0
 18 20  1  0
 19 21  2  0
 20 22  2  0
 21 22  1  0
  1 23  1  1
  1 24  1  0
  1 25  1  0
  5 26  1  0
  6 27  1  1
  6 28  1  0
  7 29  1  1
 11 30  1  0
 12 31  1  0
 13 32  1  0
 14 33  1  0
 15 34  1  0
 17 35  1  0
 18 36  1  0
 19 37  1  0
 20 38  1  0
 22 39  1  0
M  END
