
     RDKit          3D

 39 40  0  0  0  0  0  0  0  0999 V2000
    6.6170   -5.0620   25.8530 C   0  0  1  0  0  0  0  0  0  0  0  0
    8.2270   -4.2940   25.8090 S   0  0  2  0  0  0  0  0  0  0  0  0
    9.2170   -5.3420   25.9290 O   0  0  0  0  0  0  0  0  0  0  0  0
    8.1730   -3.1940   26.7410 O   0  0  0  0  0  0  0  0  0  0  0  0
    8.3540   -3.6200   24.2640 N   0  0  0  0  0  0  0  0  0  0  0  0
    8.4080   -2.1430   24.0540 C   0  0  1  0  0  0  0  0  0  0  0  0
    9.1690   -1.7170   22.7600 C   0  0  1  0  0  0  0  0  0  0  0  0
    8.4460   -0.5920   21.9470 C   0  0  0  0  0  0  0  0  0  0  0  0
   10.5570   -1.1600   22.9060 C   0  0  0  0  0  0  0  0  0  0  0  0
    9.0260    0.4940   21.7890 O   0  0  0  0  0  0  0  0  0  0  0  0
    7.2030   -0.8690   21.4160 N   0  0  0  0  0  0  0  0  0  0  0  0
   11.5900   -1.7410   22.1630 C   0  0  0  0  0  0  0  0  0  0  0  0
   10.8320   -0.0750   23.7410 C   0  0  0  0  0  0  0  0  0  0  0  0
   12.8750   -1.2330   22.2510 C   0  0  0  0  0  0  0  0  0  0  0  0
   12.1110    0.4250   23.8200 C   0  0  0  0  0  0  0  0  0  0  0  0
    6.5760   -0.1640   20.3530 C   0  0  0  0  0  0  0  0  0  0  0  0
   13.1190   -0.1500   23.0760 C   0  0  0  0  0  0  0  0  0  0  0  0
    5.4630    0.6630   20.4820 C   0  0  0  0  0  0  0  0  0  0  0  0
    7.0940   -0.2930   19.0700 C   0  0  0  0  0  0  0  0  0  0  0  0
    4.9280    1.3100   19.3630 C   0  0  0  0  0  0  0  0  0  0  0  0
    6.5990    0.3240   17.9750 N   0  0  0  0  0  0  0  0  0  0  0  0
    5.5270    1.1120   18.1380 C   0  0  0  0  0  0  0  0  0  0  0  0
    6.6240   -5.8680   26.5980 H   0  0  0  0  0  0  0  0  0  0  0  0
    5.8550   -4.3240   26.1270 H   0  0  0  0  0  0  0  0  0  0  0  0
    6.3690   -5.4880   24.8760 H   0  0  0  0  0  0  0  0  0  0  0  0
    8.8160   -4.2230   23.5800 H   0  0  0  0  0  0  0  0  0  0  0  0
    7.4040   -1.7020   24.0520 H   0  0  0  0  0  0  0  0  0  0  0  0
    8.9280   -1.7190   24.9230 H   0  0  0  0  0  0  0  0  0  0  0  0
    9.2520   -2.5950   22.1000 H   0  0  0  0  0  0  0  0  0  0  0  0
    6.8290   -1.7930   21.6000 H   0  0  0  0  0  0  0  0  0  0  0  0
   11.4000   -2.5890   21.5050 H   0  0  0  0  0  0  0  0  0  0  0  0
   10.0640    0.4070   24.3390 H   0  0  0  0  0  0  0  0  0  0  0  0
   13.6780   -1.6800   21.6720 H   0  0  0  0  0  0  0  0  0  0  0  0
   12.3210    1.2660   24.4580 H   0  0  0  0  0  0  0  0  0  0  0  0
   14.0980    0.2540   23.1390 H   0  0  0  0  0  0  0  0  0  0  0  0
    4.9810    0.8290   21.4410 H   0  0  0  0  0  0  0  0  0  0  0  0
    7.9560   -0.9200   18.8670 H   0  0  0  0  0  0  0  0  0  0  0  0
    4.0600    1.9560   19.4540 H   0  0  0  0  0  0  0  0  0  0  0  0
    5.1470    1.5950   17.2420 H   0  0  0  0  0  0  0  0  0  0  0  0
  1  2  1  0
  2  3  2  0
  2  4  2  0
  2  5  1  6
  5  6  1  0
  6  7  1  0
  7  8  1  0
  7  9  1  0
  8 10  2  0
  8 11  1  0
  9 12  2  0
  9 13  1  0
 12 14  1  0
 13 15  2  0
 11 16  1  0
 14 17  2  0
 15 17  1  0
 16 18  2  0
 16 19  1  0
 18 20  1  0
 19 21  2  0
 20 22  2  0
 21 22  1  0
  1 23  1  1
  1 24  1  0
  1 25  1  0
  5 26  1  0
  6 27  1  6
  6 28  1  0
  7 29  1  6
 11 30  1  0
 12 31  1  0
 13 32  1  0
 14 33  1  0
 15 34  1  0
 17 35  1  0
 18 36  1  0
 19 37  1  0
 20 38  1  0
 22 39  1  0
M  END
