
     RDKit          3D

 35 35  0  0  0  0  0  0  0  0999 V2000
    6.5070   -5.4040   26.5170 C   0  0  1  0  0  0  0  0  0  0  0  0
    8.0490   -4.5550   26.2750 S   0  0  2  0  0  0  0  0  0  0  0  0
    9.0880   -5.5300   26.0340 O   0  0  0  0  0  0  0  0  0  0  0  0
    8.1670   -3.5360   27.2840 O   0  0  0  0  0  0  0  0  0  0  0  0
    7.7900   -3.7790   24.7970 N   0  0  0  0  0  0  0  0  0  0  0  0
    8.9720   -3.3760   24.0100 C   0  0  1  0  0  0  0  0  0  0  0  0
    8.8660   -1.9090   23.5930 C   0  0  1  0  0  0  0  0  0  0  0  0
   10.2030   -1.2170   23.4980 C   0  0  0  0  0  0  0  0  0  0  0  0
   11.0820   -1.6770   22.5290 C   0  0  0  0  0  0  0  0  0  0  0  0
   10.5960   -0.1480   24.3330 C   0  0  0  0  0  0  0  0  0  0  0  0
    9.7350    0.3100   25.3150 N   0  0  0  0  0  0  0  0  0  0  0  0
   12.3160   -1.0870   22.3920 C   0  0  0  0  0  0  0  0  0  0  0  0
   11.8650    0.4130   24.1300 C   0  0  0  0  0  0  0  0  0  0  0  0
    8.8480   -0.4910   26.1370 C   0  0  2  0  0  0  0  0  0  0  0  0
   13.1530   -1.5580   21.4290 C   0  0  0  0  0  0  0  0  0  0  0  0
   12.7220   -0.0450   23.1760 C   0  0  0  0  0  0  0  0  0  0  0  0
    8.8280    0.0450   27.5530 C   0  0  1  0  0  0  0  0  0  0  0  0
   13.7910   -1.8800   20.6010 N   0  0  0  0  0  0  0  0  0  0  0  0
    6.7180   -6.3220   27.0680 H   0  0  0  0  0  0  0  0  0  0  0  0
    5.8370   -4.7710   27.0990 H   0  0  0  0  0  0  0  0  0  0  0  0
    6.0770   -5.6440   25.5450 H   0  0  0  0  0  0  0  0  0  0  0  0
    7.1000   -4.3090   24.2560 H   0  0  0  0  0  0  0  0  0  0  0  0
    9.8760   -3.5560   24.5990 H   0  0  0  0  0  0  0  0  0  0  0  0
    9.0180   -3.9760   23.0980 H   0  0  0  0  0  0  0  0  0  0  0  0
    8.3820   -1.8660   22.6120 H   0  0  0  0  0  0  0  0  0  0  0  0
    8.1970   -1.3580   24.2620 H   0  0  0  0  0  0  0  0  0  0  0  0
   10.8010   -2.5030   21.8730 H   0  0  0  0  0  0  0  0  0  0  0  0
    9.5970    1.3220   25.3440 H   0  0  0  0  0  0  0  0  0  0  0  0
   12.2210    1.2280   24.7130 H   0  0  0  0  0  0  0  0  0  0  0  0
    9.1010   -1.5570   26.1140 H   0  0  0  0  0  0  0  0  0  0  0  0
    7.8360   -0.4080   25.7250 H   0  0  0  0  0  0  0  0  0  0  0  0
   13.6970    0.4170   23.0490 H   0  0  0  0  0  0  0  0  0  0  0  0
    8.4220    1.0610   27.5960 H   0  0  0  0  0  0  0  0  0  0  0  0
    8.2110   -0.5970   28.1950 H   0  0  0  0  0  0  0  0  0  0  0  0
    9.8380    0.0760   27.9740 H   0  0  0  0  0  0  0  0  0  0  0  0
  1  2  1  0
  2  3  2  0
  2  4  2  0
  2  5  1  6
  5  6  1  0
  6  7  1  0
  7  8  1  0
  8  9  2  0
  8 10  1  0
 10 11  1  0
  9 12  1  0
 10 13  2  0
 11 14  1  0
 12 15  1  0
 12 16  2  0
 13 16  1  0
 14 17  1  0
 15 18  3  0
  1 19  1  1
  1 20  1  0
  1 21  1  0
  5 22  1  0
  6 23  1  1
  6 24  1  0
  7 25  1  6
  7 26  1  0
  9 27  1  0
 11 28  1  0
 13 29  1  0
 14 30  1  1
 14 31  1  0
 16 32  1  0
 17 33  1  6
 17 34  1  0
 17 35  1  0
M  END
