
     RDKit          3D

 36 37  0  0  0  0  0  0  0  0999 V2000
    6.7600   -3.1420   26.3910 C   0  0  1  0  0  0  0  0  0  0  0  0
    7.8120   -3.8700   25.5540 C   0  0  2  0  0  0  0  0  0  0  0  0
    8.8240   -4.6080   26.4610 C   0  0  2  0  0  0  0  0  0  0  0  0
    8.4200   -3.0450   24.3280 C   0  0  1  0  0  0  0  0  0  0  0  0
    8.7360   -4.0230   27.7500 O   0  0  0  0  0  0  0  0  0  0  0  0
    8.8490   -1.5490   24.4200 C   0  0  2  0  0  0  0  0  0  0  0  0
    9.6230   -3.7200   23.9440 N   0  0  0  0  0  0  0  0  0  0  0  0
   10.2850   -4.6550   26.0090 C   0  0  1  0  0  0  0  0  0  0  0  0
    9.1740   -5.0820   23.9350 N   0  0  0  0  0  0  0  0  0  0  0  0
   10.2520   -1.1830   23.8760 C   0  0  0  0  0  0  0  0  0  0  0  0
   10.6070   -3.5820   24.9990 C   0  0  1  0  0  0  0  0  0  0  0  0
   10.9830   -1.9220   22.9020 C   0  0  0  0  0  0  0  0  0  0  0  0
   10.8530   -0.0330   24.3750 C   0  0  0  0  0  0  0  0  0  0  0  0
   12.2610   -1.4940   22.4790 C   0  0  0  0  0  0  0  0  0  0  0  0
   12.1200    0.3830   23.9430 C   0  0  0  0  0  0  0  0  0  0  0  0
   12.8280   -0.3480   22.9940 C   0  0  0  0  0  0  0  0  0  0  0  0
    6.8390   -3.4310   27.4460 H   0  0  0  0  0  0  0  0  0  0  0  0
    6.9210   -2.0590   26.3310 H   0  0  0  0  0  0  0  0  0  0  0  0
    5.7390   -3.3460   26.0560 H   0  0  0  0  0  0  0  0  0  0  0  0
    7.2190   -4.6850   25.1170 H   0  0  0  0  0  0  0  0  0  0  0  0
    8.4720   -5.6420   26.5830 H   0  0  0  0  0  0  0  0  0  0  0  0
    7.7010   -3.1330   23.4990 H   0  0  0  0  0  0  0  0  0  0  0  0
    8.8660   -4.7310   28.4030 H   0  0  0  0  0  0  0  0  0  0  0  0
    8.8220   -1.2070   25.4580 H   0  0  0  0  0  0  0  0  0  0  0  0
    8.0960   -0.9350   23.9110 H   0  0  0  0  0  0  0  0  0  0  0  0
   10.9240   -4.5550   26.8880 H   0  0  0  0  0  0  0  0  0  0  0  0
   10.5240   -5.6370   25.5840 H   0  0  0  0  0  0  0  0  0  0  0  0
    8.2630   -5.1920   23.4890 H   0  0  0  0  0  0  0  0  0  0  0  0
    9.8240   -5.6510   23.4000 H   0  0  0  0  0  0  0  0  0  0  0  0
   11.6330   -3.6690   24.6220 H   0  0  0  0  0  0  0  0  0  0  0  0
   10.5330   -2.6060   25.4970 H   0  0  0  0  0  0  0  0  0  0  0  0
   10.5640   -2.8300   22.4720 H   0  0  0  0  0  0  0  0  0  0  0  0
   10.3270    0.5590   25.1180 H   0  0  0  0  0  0  0  0  0  0  0  0
   12.8030   -2.0750   21.7370 H   0  0  0  0  0  0  0  0  0  0  0  0
   12.5510    1.2800   24.3470 H   0  0  0  0  0  0  0  0  0  0  0  0
   13.8080   -0.0160   22.6680 H   0  0  0  0  0  0  0  0  0  0  0  0
  1  2  1  0
  2  3  1  0
  2  4  1  0
  3  5  1  0
  4  6  1  0
  4  7  1  0
  3  8  1  0
  7  9  1  0
  6 10  1  0
  7 11  1  0
  8 11  1  0
 10 12  2  0
 10 13  1  0
 12 14  1  0
 13 15  2  0
 14 16  2  0
 15 16  1  0
  1 17  1  1
  1 18  1  0
  1 19  1  0
  2 20  1  6
  3 21  1  1
  4 22  1  6
  5 23  1  0
  6 24  1  1
  6 25  1  0
  8 26  1  1
  8 27  1  0
  9 28  1  0
  9 29  1  0
 11 30  1  6
 11 31  1  0
 12 32  1  0
 13 33  1  0
 14 34  1  0
 15 35  1  0
 16 36  1  0
M  END
