
     RDKit          3D

 43 44  0  0  0  0  0  0  0  0999 V2000
    9.7010   -0.7930   22.7250 C   0  0  1  0  0  0  0  0  0  0  0  0
    8.9110    0.0520   21.6830 C   0  0  0  0  0  0  0  0  0  0  0  0
    9.2330    1.2150   21.3950 O   0  0  0  0  0  0  0  0  0  0  0  0
   10.1640   -0.0830   23.8900 O   0  0  0  0  0  0  0  0  0  0  0  0
    7.8350   -0.6460   21.1410 N   0  0  0  0  0  0  0  0  0  0  0  0
   10.7860    1.1120   23.6650 C   0  0  0  0  0  0  0  0  0  0  0  0
    6.9370   -0.1310   20.1840 C   0  0  0  0  0  0  0  0  0  0  0  0
   12.1330    1.0610   23.2770 C   0  0  0  0  0  0  0  0  0  0  0  0
   10.1640    2.3620   23.7900 C   0  0  0  0  0  0  0  0  0  0  0  0
    5.7950    0.5780   20.5970 C   0  0  0  0  0  0  0  0  0  0  0  0
    7.1130   -0.2830   18.8200 C   0  0  0  0  0  0  0  0  0  0  0  0
   12.8710   -0.2290   23.1640 C   0  0  0  0  0  0  0  0  0  0  0  0
   12.8210    2.2390   22.9870 C   0  0  0  0  0  0  0  0  0  0  0  0
   10.8720    3.5440   23.5150 C   0  0  0  0  0  0  0  0  0  0  0  0
    5.4720    0.8100   22.0480 C   0  0  1  0  0  0  0  0  0  0  0  0
    4.9270    1.0880   19.6260 C   0  0  0  0  0  0  0  0  0  0  0  0
    6.2860    0.2060   17.8780 N   0  0  0  0  0  0  0  0  0  0  0  0
   12.7780   -0.8980   24.3570 O   0  0  0  0  0  0  0  0  0  0  0  0
   13.4580   -0.5880   22.1640 O   0  0  0  0  0  0  0  0  0  0  0  0
   10.0570    5.1240   23.7080 S   0  0  2  0  0  0  0  0  0  0  0  0
   12.2020    3.4870   23.0980 C   0  0  0  0  0  0  0  0  0  0  0  0
    5.2130    0.8800   18.2960 C   0  0  0  0  0  0  0  0  0  0  0  0
   13.3110   -2.2310   24.3610 C   0  0  1  0  0  0  0  0  0  0  0  0
   10.9450    6.1700   23.2660 O   0  0  0  0  0  0  0  0  0  0  0  0
    9.3720    5.1880   24.9850 O   0  0  0  0  0  0  0  0  0  0  0  0
    8.8250    5.0390   22.5880 N   0  0  0  0  0  0  0  0  0  0  0  0
    9.1310   -1.6830   23.0150 H   0  0  0  0  0  0  0  0  0  0  0  0
   10.5960   -1.1630   22.1950 H   0  0  0  0  0  0  0  0  0  0  0  0
    7.9470   -1.6580   21.1560 H   0  0  0  0  0  0  0  0  0  0  0  0
    9.1240    2.4550   24.1000 H   0  0  0  0  0  0  0  0  0  0  0  0
    7.9560   -0.8190   18.3990 H   0  0  0  0  0  0  0  0  0  0  0  0
   13.8560    2.1890   22.6760 H   0  0  0  0  0  0  0  0  0  0  0  0
    6.3290    1.2550   22.5670 H   0  0  0  0  0  0  0  0  0  0  0  0
    4.6250    1.4890   22.1590 H   0  0  0  0  0  0  0  0  0  0  0  0
    5.1960   -0.1340   22.5280 H   0  0  0  0  0  0  0  0  0  0  0  0
    4.0380    1.6410   19.9000 H   0  0  0  0  0  0  0  0  0  0  0  0
   12.7630    4.3890   22.8710 H   0  0  0  0  0  0  0  0  0  0  0  0
    4.5710    1.2600   17.5170 H   0  0  0  0  0  0  0  0  0  0  0  0
   14.0430   -2.3610   25.1670 H   0  0  0  0  0  0  0  0  0  0  0  0
   12.5060   -2.9620   24.4540 H   0  0  0  0  0  0  0  0  0  0  0  0
   13.8260   -2.3950   23.4190 H   0  0  0  0  0  0  0  0  0  0  0  0
    8.1420    5.7760   22.7550 H   0  0  0  0  0  0  0  0  0  0  0  0
    9.2000    5.0500   21.6390 H   0  0  0  0  0  0  0  0  0  0  0  0
  1  2  1  0
  2  3  2  0
  1  4  1  0
  2  5  1  0
  4  6  1  0
  5  7  1  0
  6  8  2  0
  6  9  1  0
  7 10  2  0
  7 11  1  0
  8 12  1  0
  8 13  1  0
  9 14  2  0
 10 15  1  0
 10 16  1  0
 11 17  2  0
 12 18  1  0
 12 19  2  0
 14 20  1  0
 13 21  2  0
 14 21  1  0
 16 22  2  0
 17 22  1  0
 18 23  1  0
 20 24  2  0
 20 25  2  0
 20 26  1  6
  1 27  1  1
  1 28  1  0
  5 29  1  0
  9 30  1  0
 11 31  1  0
 13 32  1  0
 15 33  1  1
 15 34  1  0
 15 35  1  0
 16 36  1  0
 21 37  1  0
 22 38  1  0
 23 39  1  1
 23 40  1  0
 23 41  1  0
 26 42  1  0
 26 43  1  0
M  END
