
     RDKit          3D

 37 38  0  0  0  0  0  0  0  0999 V2000
    9.0820    6.5990   22.5740 C   0  0  1  0  0  0  0  0  0  0  0  0
   10.3310    6.2210   23.3840 C   0  0  0  0  0  0  0  0  0  0  0  0
   10.3700    6.3740   24.6010 O   0  0  0  0  0  0  0  0  0  0  0  0
   11.3270    5.7220   22.5740 N   0  0  0  0  0  0  0  0  0  0  0  0
   12.5280    5.1060   23.1360 C   0  0  1  0  0  0  0  0  0  0  0  0
   12.7310    3.6590   22.6810 C   0  0  1  0  0  0  0  0  0  0  0  0
   11.8060    2.7560   23.2160 C   0  0  0  0  0  0  0  0  0  0  0  0
   10.7350    3.1170   23.9940 C   0  0  0  0  0  0  0  0  0  0  0  0
   11.7370    1.3230   23.0730 C   0  0  0  0  0  0  0  0  0  0  0  0
   10.0470    2.0010   24.3080 N   0  0  0  0  0  0  0  0  0  0  0  0
   10.6080    0.8990   23.7570 C   0  0  0  0  0  0  0  0  0  0  0  0
   12.5320    0.3750   22.4100 C   0  0  0  0  0  0  0  0  0  0  0  0
   10.1450   -0.3980   23.8490 C   0  0  0  0  0  0  0  0  0  0  0  0
   12.1630   -1.0810   22.3410 C   0  0  0  0  0  0  0  0  0  0  0  0
   12.9080   -2.0410   21.6160 C   0  0  0  0  0  0  0  0  0  0  0  0
    9.0120   -0.6430   24.6130 N   0  0  0  0  0  0  0  0  0  0  0  0
   10.9240   -1.4240   23.0910 C   0  0  0  0  0  0  0  0  0  0  0  0
    9.1760   -0.9560   25.9130 C   0  0  2  0  0  0  0  0  0  0  0  0
   13.4230   -2.8120   20.9490 N   0  0  0  0  0  0  0  0  0  0  0  0
    8.3930   -0.0590   26.8570 C   0  0  1  0  0  0  0  0  0  0  0  0
    8.4550    7.2310   23.2120 H   0  0  0  0  0  0  0  0  0  0  0  0
    9.3690    7.1800   21.6990 H   0  0  0  0  0  0  0  0  0  0  0  0
    8.5340    5.6990   22.2790 H   0  0  0  0  0  0  0  0  0  0  0  0
   11.0520    5.4730   21.6190 H   0  0  0  0  0  0  0  0  0  0  0  0
   13.3950    5.7050   22.8320 H   0  0  0  0  0  0  0  0  0  0  0  0
   12.4490    5.1770   24.2260 H   0  0  0  0  0  0  0  0  0  0  0  0
   12.5790    3.6630   21.5970 H   0  0  0  0  0  0  0  0  0  0  0  0
   13.7500    3.3300   22.8390 H   0  0  0  0  0  0  0  0  0  0  0  0
   10.4030    4.0820   24.3460 H   0  0  0  0  0  0  0  0  0  0  0  0
   13.4090    0.6860   21.9170 H   0  0  0  0  0  0  0  0  0  0  0  0
    8.2720    0.0360   24.4620 H   0  0  0  0  0  0  0  0  0  0  0  0
   10.5900   -2.4710   23.0900 H   0  0  0  0  0  0  0  0  0  0  0  0
   10.2300   -0.9540   26.1910 H   0  0  0  0  0  0  0  0  0  0  0  0
    8.8290   -1.9860   26.0490 H   0  0  0  0  0  0  0  0  0  0  0  0
    7.3760   -0.4280   27.0150 H   0  0  0  0  0  0  0  0  0  0  0  0
    8.8840   -0.0000   27.8340 H   0  0  0  0  0  0  0  0  0  0  0  0
    8.3260    0.9490   26.4420 H   0  0  0  0  0  0  0  0  0  0  0  0
  1  2  1  0
  2  3  2  0
  2  4  1  0
  4  5  1  0
  5  6  1  0
  6  7  1  0
  7  8  4  0
  7  9  4  0
  8 10  4  0
  9 11  1  0
 10 11  4  0
  9 12  1  0
 11 13  1  0
 12 14  2  0
 14 15  1  0
 13 16  1  0
 13 17  2  0
 14 17  1  0
 16 18  1  0
 15 19  3  0
 18 20  1  0
  1 21  1  1
  1 22  1  0
  1 23  1  0
  4 24  1  0
  5 25  1  6
  5 26  1  0
  6 27  1  6
  6 28  1  0
  8 29  1  0
 12 30  1  0
 16 31  1  0
 17 32  1  0
 18 33  1  1
 18 34  1  0
 20 35  1  1
 20 36  1  0
 20 37  1  0
M  END
