
     RDKit          3D

 43 45  0  0  0  0  0  0  0  0999 V2000
    8.9580    6.7210   22.6060 C   0  0  1  0  0  0  0  0  0  0  0  0
   10.1730    6.1840   23.3510 C   0  0  0  0  0  0  0  0  0  0  0  0
   10.3420    6.3410   24.5590 O   0  0  0  0  0  0  0  0  0  0  0  0
   11.0930    5.4720   22.4790 N   0  0  0  0  0  0  0  0  0  0  0  0
   12.5010    5.3910   22.7610 C   0  0  1  0  0  0  0  0  0  0  0  0
   13.0470    3.9730   22.9300 C   0  0  1  0  0  0  0  0  0  0  0  0
   12.0120    2.8420   23.0230 C   0  0  0  0  0  0  0  0  0  0  0  0
   10.5140    3.0220   23.2810 C   0  0  0  0  0  0  0  0  0  0  0  0
   12.1110    1.3860   22.8780 C   0  0  0  0  0  0  0  0  0  0  0  0
    9.8230    1.8670   23.2520 N   0  0  0  0  0  0  0  0  0  0  0  0
   10.6520    0.8110   22.9980 C   0  0  0  0  0  0  0  0  0  0  0  0
   13.1200    0.4300   22.6500 C   0  0  0  0  0  0  0  0  0  0  0  0
   10.3200   -0.5420   22.8420 C   0  0  0  0  0  0  0  0  0  0  0  0
   12.7660   -0.9250   22.5250 C   0  0  0  0  0  0  0  0  0  0  0  0
   13.6910   -1.8340   22.3000 F   0  0  0  0  0  0  0  0  0  0  0  0
    8.9540   -0.8440   22.8820 N   0  0  0  0  0  0  0  0  0  0  0  0
   11.3430   -1.4370   22.6170 C   0  0  0  0  0  0  0  0  0  0  0  0
    8.2580   -0.2010   21.8430 C   0  0  0  0  0  0  0  0  0  0  0  0
    8.6340    0.8770   21.3990 O   0  0  0  0  0  0  0  0  0  0  0  0
    7.1360   -0.8300   21.3230 N   0  0  0  0  0  0  0  0  0  0  0  0
    6.3840   -0.1620   20.3170 C   0  0  0  0  0  0  0  0  0  0  0  0
    5.1750    0.5080   20.5110 C   0  0  0  0  0  0  0  0  0  0  0  0
    6.9400   -0.1560   18.8960 C   0  0  0  0  0  0  0  0  0  0  0  0
    4.5420    1.1470   19.4370 C   0  0  0  0  0  0  0  0  0  0  0  0
    6.3640    0.4520   17.8370 N   0  0  0  0  0  0  0  0  0  0  0  0
    5.2070    1.0910   18.0600 C   0  0  0  0  0  0  0  0  0  0  0  0
    8.4070    7.4210   23.2390 H   0  0  0  0  0  0  0  0  0  0  0  0
    9.2510    7.2570   21.7020 H   0  0  0  0  0  0  0  0  0  0  0  0
    8.2780    5.9130   22.3210 H   0  0  0  0  0  0  0  0  0  0  0  0
   10.7970    5.3310   21.5150 H   0  0  0  0  0  0  0  0  0  0  0  0
   13.0140    5.9040   21.9380 H   0  0  0  0  0  0  0  0  0  0  0  0
   12.7000    5.9570   23.6780 H   0  0  0  0  0  0  0  0  0  0  0  0
   13.6990    3.7710   22.0850 H   0  0  0  0  0  0  0  0  0  0  0  0
   13.6980    4.0270   23.7680 H   0  0  0  0  0  0  0  0  0  0  0  0
   10.1650    4.0450   23.4450 H   0  0  0  0  0  0  0  0  0  0  0  0
   14.1530    0.7210   22.5600 H   0  0  0  0  0  0  0  0  0  0  0  0
    8.7200   -1.8150   23.0270 H   0  0  0  0  0  0  0  0  0  0  0  0
   11.1760   -2.5020   22.4890 H   0  0  0  0  0  0  0  0  0  0  0  0
    7.2070   -1.8320   21.2260 H   0  0  0  0  0  0  0  0  0  0  0  0
    4.6950    0.5580   21.4850 H   0  0  0  0  0  0  0  0  0  0  0  0
    7.8700   -0.6600   18.6570 H   0  0  0  0  0  0  0  0  0  0  0  0
    3.6030    1.6710   19.5760 H   0  0  0  0  0  0  0  0  0  0  0  0
    4.7640    1.5730   17.1990 H   0  0  0  0  0  0  0  0  0  0  0  0
  1  2  1  0
  2  3  2  0
  2  4  1  0
  4  5  1  0
  5  6  1  0
  6  7  1  0
  7  8  4  0
  7  9  4  0
  8 10  4  0
  9 11  1  0
 10 11  4  0
  9 12  1  0
 11 13  1  0
 12 14  2  0
 14 15  1  0
 13 16  1  0
 13 17  2  0
 14 17  1  0
 16 18  1  0
 18 19  2  0
 18 20  1  0
 20 21  1  0
 21 22  2  0
 21 23  1  0
 22 24  1  0
 23 25  2  0
 24 26  2  0
 25 26  1  0
  1 27  1  1
  1 28  1  0
  1 29  1  0
  4 30  1  0
  5 31  1  6
  5 32  1  0
  6 33  1  6
  6 34  1  0
  8 35  1  0
 12 36  1  0
 16 37  1  0
 17 38  1  0
 20 39  1  0
 22 40  1  0
 23 41  1  0
 24 42  1  0
 26 43  1  0
M  END
