
     RDKit          3D

 60 63  0  0  0  0  0  0  0  0999 V2000
    9.0410    6.6360   22.5550 C   0  0  1  0  0  0  0  0  0  0  0  0
   10.1950    6.1790   23.4080 C   0  0  0  0  0  0  0  0  0  0  0  0
   10.1760    6.2390   24.6340 O   0  0  0  0  0  0  0  0  0  0  0  0
   11.2460    5.6980   22.6680 N   0  0  0  0  0  0  0  0  0  0  0  0
   12.3930    5.0610   23.3000 C   0  0  1  0  0  0  0  0  0  0  0  0
   12.6820    3.6580   22.7470 C   0  0  1  0  0  0  0  0  0  0  0  0
   11.7030    2.5750   23.1160 C   0  0  0  0  0  0  0  0  0  0  0  0
   10.4510    2.7910   23.6430 C   0  0  0  0  0  0  0  0  0  0  0  0
   11.8360    1.1340   22.9840 C   0  0  0  0  0  0  0  0  0  0  0  0
    9.8330    1.5900   23.8020 N   0  0  0  0  0  0  0  0  0  0  0  0
   10.6320    0.5600   23.3970 C   0  0  0  0  0  0  0  0  0  0  0  0
   12.8420    0.2580   22.5420 C   0  0  0  0  0  0  0  0  0  0  0  0
   10.3490   -0.8240   23.3700 C   0  0  0  0  0  0  0  0  0  0  0  0
   12.5790   -1.1100   22.5140 C   0  0  0  0  0  0  0  0  0  0  0  0
   13.5220   -1.9330   22.0810 F   0  0  0  0  0  0  0  0  0  0  0  0
   11.3700   -1.6510   22.9110 C   0  0  0  0  0  0  0  0  0  0  0  0
    9.1030   -1.2130   23.7800 O   0  0  0  0  0  0  0  0  0  0  0  0
    8.1810   -1.8990   22.8730 C   0  0  1  0  0  0  0  0  0  0  0  0
    8.0770   -1.3000   21.4300 C   0  0  2  0  0  0  0  0  0  0  0  0
    6.8760   -1.6660   20.5900 N   0  0  0  0  0  0  0  0  0  0  0  0
    6.9140   -1.2490   19.1670 C   0  0  1  0  0  0  0  0  0  0  0  0
    6.1260   -2.8150   20.9010 C   0  0  0  0  0  0  0  0  0  0  0  0
    5.3930   -3.3590   20.0690 O   0  0  0  0  0  0  0  0  0  0  0  0
    6.2640   -3.3150   22.1710 N   0  0  0  0  0  0  0  0  0  0  0  0
    6.0790   -0.0810   18.8870 C   0  0  0  0  0  0  0  0  0  0  0  0
    5.0270    0.4270   19.6500 C   0  0  0  0  0  0  0  0  0  0  0  0
    6.2850    0.6300   17.7830 N   0  0  0  0  0  0  0  0  0  0  0  0
    5.6400   -4.5480   22.5570 C   0  0  2  0  0  0  0  0  0  0  0  0
    5.3550    1.6370   17.8160 O   0  0  0  0  0  0  0  0  0  0  0  0
    4.6040    1.5070   18.9400 C   0  0  0  0  0  0  0  0  0  0  0  0
    6.3710   -5.5250   23.4380 C   0  0  1  0  0  0  0  0  0  0  0  0
    6.1260   -5.8560   21.9960 C   0  0  2  0  0  0  0  0  0  0  0  0
    3.5490    2.5000   19.1480 C   0  0  1  0  0  0  0  0  0  0  0  0
    8.3900    7.3100   23.1140 H   0  0  0  0  0  0  0  0  0  0  0  0
    9.4400    7.1650   21.6890 H   0  0  0  0  0  0  0  0  0  0  0  0
    8.4870    5.7590   22.2130 H   0  0  0  0  0  0  0  0  0  0  0  0
   10.9790    5.4540   21.6960 H   0  0  0  0  0  0  0  0  0  0  0  0
   13.2770    5.7000   23.1890 H   0  0  0  0  0  0  0  0  0  0  0  0
   12.1630    5.0010   24.3670 H   0  0  0  0  0  0  0  0  0  0  0  0
   12.6510    3.7560   21.6580 H   0  0  0  0  0  0  0  0  0  0  0  0
   13.6950    3.3640   22.9750 H   0  0  0  0  0  0  0  0  0  0  0  0
    9.9380    3.7030   23.9100 H   0  0  0  0  0  0  0  0  0  0  0  0
   13.8020    0.6110   22.2200 H   0  0  0  0  0  0  0  0  0  0  0  0
   11.2600   -2.7280   22.8460 H   0  0  0  0  0  0  0  0  0  0  0  0
    8.5460   -2.9320   22.8200 H   0  0  0  0  0  0  0  0  0  0  0  0
    7.1880   -1.9760   23.3300 H   0  0  0  0  0  0  0  0  0  0  0  0
    8.9670   -1.5910   20.8710 H   0  0  0  0  0  0  0  0  0  0  0  0
    8.1030   -0.2100   21.5090 H   0  0  0  0  0  0  0  0  0  0  0  0
    7.9280   -1.0640   18.8130 H   0  0  0  0  0  0  0  0  0  0  0  0
    6.5330   -2.0880   18.5740 H   0  0  0  0  0  0  0  0  0  0  0  0
    6.3030   -2.6040   22.8870 H   0  0  0  0  0  0  0  0  0  0  0  0
    4.6310    0.0610   20.5870 H   0  0  0  0  0  0  0  0  0  0  0  0
    4.5700   -4.4510   22.7260 H   0  0  0  0  0  0  0  0  0  0  0  0
    7.3860   -5.2840   23.7340 H   0  0  0  0  0  0  0  0  0  0  0  0
    5.8110   -6.0760   24.1810 H   0  0  0  0  0  0  0  0  0  0  0  0
    6.9730   -5.8480   21.3240 H   0  0  0  0  0  0  0  0  0  0  0  0
    5.3800   -6.6050   21.7580 H   0  0  0  0  0  0  0  0  0  0  0  0
    3.8010    3.1550   19.9890 H   0  0  0  0  0  0  0  0  0  0  0  0
    3.4290    3.1230   18.2570 H   0  0  0  0  0  0  0  0  0  0  0  0
    2.5980    2.0230   19.3650 H   0  0  0  0  0  0  0  0  0  0  0  0
  1  2  1  0
  2  3  2  0
  2  4  1  0
  4  5  1  0
  5  6  1  0
  6  7  1  0
  7  8  4  0
  7  9  4  0
  8 10  4  0
  9 11  1  0
 10 11  4  0
  9 12  1  0
 11 13  1  0
 12 14  2  0
 14 15  1  0
 13 16  2  0
 14 16  1  0
 13 17  1  0
 17 18  1  0
 18 19  1  0
 19 20  1  0
 20 21  1  0
 20 22  1  0
 22 23  2  0
 22 24  1  0
 21 25  1  0
 25 26  1  0
 25 27  2  0
 24 28  1  0
 27 29  1  0
 26 30  2  0
 29 30  1  0
 28 31  1  0
 28 32  1  0
 31 32  1  0
 30 33  1  0
  1 34  1  1
  1 35  1  0
  1 36  1  0
  4 37  1  0
  5 38  1  1
  5 39  1  0
  6 40  1  6
  6 41  1  0
  8 42  1  0
 12 43  1  0
 16 44  1  0
 18 45  1  6
 18 46  1  0
 19 47  1  6
 19 48  1  0
 21 49  1  6
 21 50  1  0
 24 51  1  0
 26 52  1  0
 28 53  1  1
 31 54  1  1
 31 55  1  0
 32 56  1  6
 32 57  1  0
 33 58  1  1
 33 59  1  0
 33 60  1  0
M  END
