
     RDKit          3D

 46 48  0  0  0  0  0  0  0  0999 V2000
   10.3980    5.1020   23.6740 S   0  0  1  0  0  0  0  0  0  0  0  0
    9.0230    5.5400   22.8190 N   0  0  0  0  0  0  0  0  0  0  0  0
   11.3360    6.1670   23.4030 O   0  0  0  0  0  0  0  0  0  0  0  0
    9.9310    4.8340   25.0170 O   0  0  0  0  0  0  0  0  0  0  0  0
   10.8060    3.5790   22.7860 C   0  0  1  0  0  0  0  0  0  0  0  0
   12.3040    3.4510   22.5130 C   0  0  2  0  0  0  0  0  0  0  0  0
   10.0840    2.4620   23.2230 C   0  0  1  0  0  0  0  0  0  0  0  0
   12.8680    2.0860   22.8920 C   0  0  2  0  0  0  0  0  0  0  0  0
   10.6760    1.1980   23.1430 C   0  0  0  0  0  0  0  0  0  0  0  0
   11.9560    0.9580   22.9620 C   0  0  0  0  0  0  0  0  0  0  0  0
    9.8310    0.0090   23.2750 C   0  0  2  0  0  0  0  0  0  0  0  0
   12.5400   -0.4530   22.8570 C   0  0  2  0  0  0  0  0  0  0  0  0
   10.2180   -0.8850   22.1560 C   0  0  2  0  0  0  0  0  0  0  0  0
    9.0550   -1.6060   21.7440 N   0  0  0  0  0  0  0  0  0  0  0  0
   11.5070   -1.5340   22.4310 C   0  0  1  0  0  0  0  0  0  0  0  0
    8.2020   -0.6350   21.2770 C   0  0  0  0  0  0  0  0  0  0  0  0
    8.5680    0.5330   21.2210 O   0  0  0  0  0  0  0  0  0  0  0  0
    6.9690   -1.0550   20.8810 N   0  0  0  0  0  0  0  0  0  0  0  0
    6.1990   -0.2030   19.9810 C   0  0  0  0  0  0  0  0  0  0  0  0
    5.0020    0.4610   20.1960 C   0  0  0  0  0  0  0  0  0  0  0  0
    6.8130   -0.0690   18.7560 C   0  0  0  0  0  0  0  0  0  0  0  0
    4.4720    1.2380   19.1620 C   0  0  0  0  0  0  0  0  0  0  0  0
    6.3310    0.6690   17.7420 N   0  0  0  0  0  0  0  0  0  0  0  0
    5.1690    1.3100   17.9690 C   0  0  0  0  0  0  0  0  0  0  0  0
    9.2270    5.4540   21.8110 H   0  0  0  0  0  0  0  0  0  0  0  0
    8.2340    4.9660   23.1180 H   0  0  0  0  0  0  0  0  0  0  0  0
   10.3870    3.7960   21.8050 H   0  0  0  0  0  0  0  0  0  0  0  0
   12.8270    4.2290   23.0840 H   0  0  0  0  0  0  0  0  0  0  0  0
   12.5240    3.6510   21.4550 H   0  0  0  0  0  0  0  0  0  0  0  0
    9.6680    2.6460   24.2160 H   0  0  0  0  0  0  0  0  0  0  0  0
    9.2050    2.4020   22.5650 H   0  0  0  0  0  0  0  0  0  0  0  0
   13.1020    2.1670   23.8780 H   0  0  0  0  0  0  0  0  0  0  0  0
   13.8050    1.8200   22.4380 H   0  0  0  0  0  0  0  0  0  0  0  0
    8.7630    0.2600   23.2680 H   0  0  0  0  0  0  0  0  0  0  0  0
   10.0810   -0.5030   24.2050 H   0  0  0  0  0  0  0  0  0  0  0  0
   12.9700   -0.7220   23.8320 H   0  0  0  0  0  0  0  0  0  0  0  0
   13.3640   -0.4590   22.1340 H   0  0  0  0  0  0  0  0  0  0  0  0
   10.3870   -0.2220   21.3240 H   0  0  0  0  0  0  0  0  0  0  0  0
    9.2420   -2.3360   21.0680 H   0  0  0  0  0  0  0  0  0  0  0  0
   11.8600   -2.0410   21.5220 H   0  0  0  0  0  0  0  0  0  0  0  0
   11.4140   -2.2960   23.2140 H   0  0  0  0  0  0  0  0  0  0  0  0
    6.4540   -1.5750   21.5750 H   0  0  0  0  0  0  0  0  0  0  0  0
    4.4580    0.4040   21.1340 H   0  0  0  0  0  0  0  0  0  0  0  0
    7.7500   -0.5700   18.5380 H   0  0  0  0  0  0  0  0  0  0  0  0
    3.5400    1.7720   19.2910 H   0  0  0  0  0  0  0  0  0  0  0  0
    4.7950    1.9060   17.1400 H   0  0  0  0  0  0  0  0  0  0  0  0
  1  2  1  6
  1  3  2  0
  1  4  2  0
  1  5  1  0
  5  6  1  0
  5  7  1  0
  6  8  1  0
  7  9  1  0
  8 10  1  0
  9 10  2  0
  9 11  1  0
 10 12  1  0
 11 13  1  0
 13 14  1  0
 12 15  1  0
 13 15  1  0
 14 16  1  0
 16 17  2  0
 16 18  1  0
 18 19  1  0
 19 20  2  0
 19 21  1  0
 20 22  1  0
 21 23  2  0
 22 24  2  0
 23 24  1  0
  2 25  1  0
  2 26  1  0
  5 27  1  6
  6 28  1  1
  6 29  1  0
  7 30  1  1
  7 31  1  0
  8 32  1  1
  8 33  1  0
 11 34  1  1
 11 35  1  0
 12 36  1  1
 12 37  1  0
 13 38  1  6
 14 39  1  0
 15 40  1  6
 15 41  1  0
 18 42  1  0
 20 43  1  0
 21 44  1  0
 22 45  1  0
 24 46  1  0
M  END
