
     RDKit          3D

 43 44  0  0  0  0  0  0  0  0999 V2000
   13.2590   -2.2180   24.3950 C   0  0  1  0  0  0  0  0  0  0  0  0
   12.7010   -0.8910   24.3600 O   0  0  0  0  0  0  0  0  0  0  0  0
   12.8360   -0.2270   23.1700 C   0  0  0  0  0  0  0  0  0  0  0  0
   13.4420   -0.5980   22.1770 O   0  0  0  0  0  0  0  0  0  0  0  0
   12.1370    1.0820   23.2700 C   0  0  0  0  0  0  0  0  0  0  0  0
   12.8590    2.2270   22.9780 C   0  0  0  0  0  0  0  0  0  0  0  0
   10.7830    1.1820   23.6480 C   0  0  0  0  0  0  0  0  0  0  0  0
   12.2760    3.5050   23.0740 C   0  0  0  0  0  0  0  0  0  0  0  0
   10.1940    2.4560   23.7610 C   0  0  0  0  0  0  0  0  0  0  0  0
   10.1200    0.0110   23.8740 O   0  0  0  0  0  0  0  0  0  0  0  0
   10.9450    3.6200   23.4790 C   0  0  0  0  0  0  0  0  0  0  0  0
    9.6710   -0.6960   22.6990 C   0  0  2  0  0  0  0  0  0  0  0  0
   10.2070    5.2450   23.6390 S   0  0  2  0  0  0  0  0  0  0  0  0
    8.9400    0.0630   21.7560 C   0  0  0  0  0  0  0  0  0  0  0  0
   11.1130    6.1920   23.0360 O   0  0  0  0  0  0  0  0  0  0  0  0
    9.7120    5.4410   24.9820 O   0  0  0  0  0  0  0  0  0  0  0  0
    8.8630    5.1290   22.6450 N   0  0  0  0  0  0  0  0  0  0  0  0
    9.2680    1.2190   21.4310 O   0  0  0  0  0  0  0  0  0  0  0  0
    7.8340   -0.6210   21.2590 N   0  0  0  0  0  0  0  0  0  0  0  0
    6.9250   -0.1270   20.2930 C   0  0  0  0  0  0  0  0  0  0  0  0
    5.7810    0.5940   20.6870 C   0  0  0  0  0  0  0  0  0  0  0  0
    7.0960   -0.3120   18.9360 C   0  0  0  0  0  0  0  0  0  0  0  0
    5.4560    0.8700   22.1250 C   0  0  1  0  0  0  0  0  0  0  0  0
    4.9000    1.0820   19.7020 C   0  0  0  0  0  0  0  0  0  0  0  0
    6.2550    0.1520   17.9810 N   0  0  0  0  0  0  0  0  0  0  0  0
    5.1770    0.8400   18.3770 C   0  0  0  0  0  0  0  0  0  0  0  0
   13.9700   -2.3360   25.2210 H   0  0  0  0  0  0  0  0  0  0  0  0
   12.4870   -2.9840   24.5440 H   0  0  0  0  0  0  0  0  0  0  0  0
   13.7910   -2.4160   23.4550 H   0  0  0  0  0  0  0  0  0  0  0  0
   13.8970    2.1420   22.6750 H   0  0  0  0  0  0  0  0  0  0  0  0
   12.8760    4.3890   22.8400 H   0  0  0  0  0  0  0  0  0  0  0  0
    9.1550    2.5480   24.0650 H   0  0  0  0  0  0  0  0  0  0  0  0
    9.0850   -1.5720   22.9980 H   0  0  0  0  0  0  0  0  0  0  0  0
   10.5700   -1.1030   22.2210 H   0  0  0  0  0  0  0  0  0  0  0  0
    8.2440    4.3510   22.8560 H   0  0  0  0  0  0  0  0  0  0  0  0
    9.1730    5.1150   21.6620 H   0  0  0  0  0  0  0  0  0  0  0  0
    7.8740   -1.6350   21.3590 H   0  0  0  0  0  0  0  0  0  0  0  0
    7.9400   -0.8590   18.5270 H   0  0  0  0  0  0  0  0  0  0  0  0
    6.3070    1.3140   22.6550 H   0  0  0  0  0  0  0  0  0  0  0  0
    4.6190    1.5770   22.1860 H   0  0  0  0  0  0  0  0  0  0  0  0
    5.2000   -0.0600   22.6470 H   0  0  0  0  0  0  0  0  0  0  0  0
    4.0060    1.6460   19.9670 H   0  0  0  0  0  0  0  0  0  0  0  0
    4.5270    1.2010   17.5840 H   0  0  0  0  0  0  0  0  0  0  0  0
  1  2  1  0
  2  3  1  0
  3  4  2  0
  3  5  1  0
  5  6  2  0
  5  7  1  0
  6  8  1  0
  7  9  2  0
  7 10  1  0
  8 11  2  0
  9 11  1  0
 10 12  1  0
 11 13  1  0
 12 14  1  0
 13 15  2  0
 13 16  2  0
 13 17  1  6
 14 18  2  0
 14 19  1  0
 19 20  1  0
 20 21  2  0
 20 22  1  0
 21 23  1  0
 21 24  1  0
 22 25  2  0
 24 26  2  0
 25 26  1  0
  1 27  1  1
  1 28  1  0
  1 29  1  0
  6 30  1  0
  8 31  1  0
  9 32  1  0
 12 33  1  1
 12 34  1  0
 17 35  1  0
 17 36  1  0
 19 37  1  0
 22 38  1  0
 23 39  1  1
 23 40  1  0
 23 41  1  0
 24 42  1  0
 26 43  1  0
M  END
