
     RDKit          3D

 32 34  0  0  0  0  0  0  0  0999 V2000
   12.6640   -2.3510   24.9110 C   0  0  1  0  0  0  0  0  0  0  0  0
   11.9230   -1.1190   25.0580 O   0  0  0  0  0  0  0  0  0  0  0  0
   12.4630   -0.2460   24.1570 C   0  0  0  0  0  0  0  0  0  0  0  0
   13.5980   -0.6220   23.8520 O   0  0  0  0  0  0  0  0  0  0  0  0
   11.9170    0.8230   23.5880 C   0  0  0  0  0  0  0  0  0  0  0  0
   12.5650    1.9110   22.8230 C   0  0  0  0  0  0  0  0  0  0  0  0
   10.5930    0.9590   23.6830 C   0  0  0  0  0  0  0  0  0  0  0  0
   13.7180   -0.2150   22.6160 C   0  0  0  0  0  0  0  0  0  0  0  0
   11.7490    3.2320   22.9860 C   0  0  0  0  0  0  0  0  0  0  0  0
    9.8880    2.1080   24.2190 C   0  0  0  0  0  0  0  0  0  0  0  0
   10.1450   -0.0960   23.0310 C   0  0  0  0  0  0  0  0  0  0  0  0
   12.6390   -0.9260   22.0760 C   0  0  0  0  0  0  0  0  0  0  0  0
   12.0710    4.6370   22.4700 C   0  0  2  0  0  0  0  0  0  0  0  0
   10.5100    3.2680   23.7550 C   0  0  0  0  0  0  0  0  0  0  0  0
   11.0270   -0.9190   22.3220 C   0  0  0  0  0  0  0  0  0  0  0  0
   10.0740    4.9250   23.9130 S   0  0  2  0  0  0  0  0  0  0  0  0
   11.2560    5.6580   23.2490 N   0  0  0  0  0  0  0  0  0  0  0  0
    9.3510    5.2410   25.1350 O   0  0  0  0  0  0  0  0  0  0  0  0
    8.9000    5.2730   22.7660 N   0  0  0  0  0  0  0  0  0  0  0  0
   13.4240   -2.4610   25.6960 H   0  0  0  0  0  0  0  0  0  0  0  0
   11.9610   -3.1810   24.9970 H   0  0  0  0  0  0  0  0  0  0  0  0
   13.1650   -2.4080   23.9410 H   0  0  0  0  0  0  0  0  0  0  0  0
   13.4770    1.7940   22.3190 H   0  0  0  0  0  0  0  0  0  0  0  0
   13.6130    0.8460   22.7790 H   0  0  0  0  0  0  0  0  0  0  0  0
    8.9860    2.0670   24.8160 H   0  0  0  0  0  0  0  0  0  0  0  0
    9.0720   -0.3150   22.9530 H   0  0  0  0  0  0  0  0  0  0  0  0
   12.9540   -1.6370   21.3080 H   0  0  0  0  0  0  0  0  0  0  0  0
   11.8150    4.7500   21.4140 H   0  0  0  0  0  0  0  0  0  0  0  0
   13.1370    4.8530   22.6120 H   0  0  0  0  0  0  0  0  0  0  0  0
   10.5140   -1.7090   21.7610 H   0  0  0  0  0  0  0  0  0  0  0  0
    8.7680    6.2740   22.8570 H   0  0  0  0  0  0  0  0  0  0  0  0
    9.3850    5.1620   21.8710 H   0  0  0  0  0  0  0  0  0  0  0  0
  1  2  1  0
  2  3  1  0
  3  4  4  0
  3  5  4  0
  5  6  1  0
  5  7  1  0
  4  8  4  0
  6  9  2  0
  7 10  1  0
  7 11  4  0
  8 12  4  0
  9 13  1  0
  9 14  1  0
 10 14  2  0
 11 15  4  0
 12 15  4  0
 14 16  1  0
 13 17  1  0
 16 17  2  0
 16 18  2  0
 16 19  1  6
  1 20  1  1
  1 21  1  0
  1 22  1  0
  6 23  1  0
  8 24  1  0
 10 25  1  0
 11 26  1  0
 12 27  1  0
 13 28  1  6
 13 29  1  0
 15 30  1  0
 19 31  1  0
 19 32  1  0
M  END
