
     RDKit          3D

 43 44  0  0  0  0  0  0  0  0999 V2000
   13.4410   -2.2610   24.6540 C   0  0  1  0  0  0  0  0  0  0  0  0
   12.9850   -0.9020   24.7360 O   0  0  0  0  0  0  0  0  0  0  0  0
   12.9100   -0.2250   23.4700 C   0  0  2  0  0  0  0  0  0  0  0  0
   12.1600    1.0670   23.5350 C   0  0  0  0  0  0  0  0  0  0  0  0
   12.0180   -1.0120   22.5540 C   0  0  1  0  0  0  0  0  0  0  0  0
   12.8720   -1.6970   21.6190 C   0  0  0  0  0  0  0  0  0  0  0  0
   12.7820    2.3170   22.9650 C   0  0  0  0  0  0  0  0  0  0  0  0
   10.9040    1.1320   24.1050 C   0  0  0  0  0  0  0  0  0  0  0  0
   10.9980   -1.9180   23.2110 C   0  0  1  0  0  0  0  0  0  0  0  0
   13.4970   -2.2000   20.8240 N   0  0  0  0  0  0  0  0  0  0  0  0
   12.1180    3.5280   23.0040 C   0  0  0  0  0  0  0  0  0  0  0  0
   10.2550    2.3900   24.1200 C   0  0  0  0  0  0  0  0  0  0  0  0
   10.2270   -0.1080   24.7270 C   0  0  2  0  0  0  0  0  0  0  0  0
    9.8990   -1.2010   23.6770 C   0  0  2  0  0  0  0  0  0  0  0  0
    9.0100    0.4540   25.3230 N   0  0  0  0  0  0  0  0  0  0  0  0
   10.8420    3.5620   23.5940 C   0  0  0  0  0  0  0  0  0  0  0  0
    9.9650    5.1140   23.7000 S   0  0  2  0  0  0  0  0  0  0  0  0
    8.0710   -0.4210   25.9960 C   0  0  2  0  0  0  0  0  0  0  0  0
   10.8530    6.1660   23.2510 O   0  0  0  0  0  0  0  0  0  0  0  0
    9.2740    5.1920   24.9790 O   0  0  0  0  0  0  0  0  0  0  0  0
    8.7380    4.9240   22.5680 N   0  0  0  0  0  0  0  0  0  0  0  0
    8.1510   -0.3410   27.5130 C   0  0  1  0  0  0  0  0  0  0  0  0
   12.5850   -2.9110   24.8480 H   0  0  0  0  0  0  0  0  0  0  0  0
   13.8320   -2.4700   23.6580 H   0  0  0  0  0  0  0  0  0  0  0  0
   14.2030   -2.4530   25.4120 H   0  0  0  0  0  0  0  0  0  0  0  0
   13.9100    0.0090   23.1550 H   0  0  0  0  0  0  0  0  0  0  0  0
   11.4350   -0.2950   21.9740 H   0  0  0  0  0  0  0  0  0  0  0  0
   13.7630    2.2810   22.5260 H   0  0  0  0  0  0  0  0  0  0  0  0
   10.6370   -2.6490   22.4720 H   0  0  0  0  0  0  0  0  0  0  0  0
   11.4380   -2.5100   24.0250 H   0  0  0  0  0  0  0  0  0  0  0  0
   12.5830    4.4230   22.5930 H   0  0  0  0  0  0  0  0  0  0  0  0
    9.2650    2.4770   24.5640 H   0  0  0  0  0  0  0  0  0  0  0  0
   10.7320   -0.5870   25.5630 H   0  0  0  0  0  0  0  0  0  0  0  0
    9.2320   -1.9570   24.0980 H   0  0  0  0  0  0  0  0  0  0  0  0
    9.3530   -0.7700   22.8250 H   0  0  0  0  0  0  0  0  0  0  0  0
    8.4950    0.9100   24.5660 H   0  0  0  0  0  0  0  0  0  0  0  0
    8.1560   -1.4530   25.6510 H   0  0  0  0  0  0  0  0  0  0  0  0
    7.0740   -0.0690   25.7150 H   0  0  0  0  0  0  0  0  0  0  0  0
    8.0380    5.6630   22.7050 H   0  0  0  0  0  0  0  0  0  0  0  0
    9.1470    4.9640   21.6270 H   0  0  0  0  0  0  0  0  0  0  0  0
    9.1940   -0.2670   27.8390 H   0  0  0  0  0  0  0  0  0  0  0  0
    7.6080    0.5240   27.9110 H   0  0  0  0  0  0  0  0  0  0  0  0
    7.6940   -1.2100   27.9960 H   0  0  0  0  0  0  0  0  0  0  0  0
  1  2  1  0
  2  3  1  0
  3  4  1  0
  3  5  1  0
  5  6  1  0
  4  7  2  0
  4  8  1  0
  5  9  1  0
  6 10  3  0
  7 11  1  0
  8 12  2  0
  8 13  1  0
  9 14  1  0
 13 14  1  0
 13 15  1  0
 11 16  2  0
 12 16  1  0
 16 17  1  0
 15 18  1  0
 17 19  2  0
 17 20  2  0
 17 21  1  6
 18 22  1  0
  1 23  1  1
  1 24  1  0
  1 25  1  0
  3 26  1  6
  5 27  1  6
  7 28  1  0
  9 29  1  6
  9 30  1  0
 11 31  1  0
 12 32  1  0
 13 33  1  1
 14 34  1  1
 14 35  1  0
 15 36  1  0
 18 37  1  1
 18 38  1  0
 21 39  1  0
 21 40  1  0
 22 41  1  6
 22 42  1  0
 22 43  1  0
M  END
