
     RDKit          3D

 44 46  0  0  0  0  0  0  0  0999 V2000
   23.2350  -17.3380   25.6290 N   0  0  0  0  0  0  0  0  0  0  0  0
   24.4220  -17.9750   25.3940 C   0  0  0  0  0  0  0  0  0  0  0  0
   25.4590  -17.5010   25.8420 O   0  0  0  0  0  0  0  0  0  0  0  0
   24.3880  -19.2580   24.5480 C   0  0  1  0  0  0  0  0  0  0  0  0
   23.3440  -20.2980   24.9870 C   0  0  1  0  0  0  0  0  0  0  0  0
   24.2270  -18.9730   23.0470 C   0  0  1  0  0  0  0  0  0  0  0  0
   22.6290  -20.9620   23.7680 C   0  0  1  0  0  0  0  0  0  0  0  0
   24.4320  -20.2390   22.2150 C   0  0  2  0  0  0  0  0  0  0  0  0
   23.4920  -21.2910   22.6160 N   0  0  0  0  0  0  0  0  0  0  0  0
   21.8480  -22.2330   24.0630 C   0  0  0  0  0  0  0  0  0  0  0  0
   22.8620  -22.1840   21.7270 C   0  0  0  0  0  0  0  0  0  0  0  0
   20.9620  -22.7290   23.1280 N   0  0  0  0  0  0  0  0  0  0  0  0
   21.8230  -23.0870   25.1470 C   0  0  0  0  0  0  0  0  0  0  0  0
   21.7420  -22.6480   21.9470 O   0  0  0  0  0  0  0  0  0  0  0  0
   23.4910  -22.5290   20.5710 N   0  0  0  0  0  0  0  0  0  0  0  0
   20.9130  -24.0490   24.7890 N   0  0  0  0  0  0  0  0  0  0  0  0
   20.4020  -23.8280   23.5780 N   0  0  0  0  0  0  0  0  0  0  0  0
   20.4740  -25.2010   25.5170 C   0  0  1  0  0  0  0  0  0  0  0  0
   22.8580  -23.4420   19.7120 C   0  0  0  0  0  0  0  0  0  0  0  0
   22.5940  -23.2160   18.3630 C   0  0  0  0  0  0  0  0  0  0  0  0
   22.4670  -24.6590   20.2880 C   0  0  0  0  0  0  0  0  0  0  0  0
   21.9520  -24.1970   17.6030 C   0  0  0  0  0  0  0  0  0  0  0  0
   21.8250  -25.6370   19.5310 C   0  0  0  0  0  0  0  0  0  0  0  0
   21.5690  -25.4050   18.1850 C   0  0  0  0  0  0  0  0  0  0  0  0
   22.4380  -17.8390   26.0040 H   0  0  0  0  0  0  0  0  0  0  0  0
   23.3100  -16.3570   25.8690 H   0  0  0  0  0  0  0  0  0  0  0  0
   25.3770  -19.7150   24.6960 H   0  0  0  0  0  0  0  0  0  0  0  0
   23.8650  -21.0530   25.5940 H   0  0  0  0  0  0  0  0  0  0  0  0
   22.5940  -19.8530   25.6530 H   0  0  0  0  0  0  0  0  0  0  0  0
   23.2170  -18.5910   22.8520 H   0  0  0  0  0  0  0  0  0  0  0  0
   24.9260  -18.2010   22.7030 H   0  0  0  0  0  0  0  0  0  0  0  0
   21.9170  -20.2260   23.3990 H   0  0  0  0  0  0  0  0  0  0  0  0
   25.4730  -20.5680   22.2740 H   0  0  0  0  0  0  0  0  0  0  0  0
   24.2510  -20.0240   21.1560 H   0  0  0  0  0  0  0  0  0  0  0  0
   22.3550  -23.0780   26.0870 H   0  0  0  0  0  0  0  0  0  0  0  0
   23.9850  -21.7830   20.1130 H   0  0  0  0  0  0  0  0  0  0  0  0
   21.2410  -25.4640   26.2500 H   0  0  0  0  0  0  0  0  0  0  0  0
   19.5350  -24.9670   26.0270 H   0  0  0  0  0  0  0  0  0  0  0  0
   20.3180  -26.0190   24.8110 H   0  0  0  0  0  0  0  0  0  0  0  0
   22.8770  -22.2860   17.8800 H   0  0  0  0  0  0  0  0  0  0  0  0
   22.6570  -24.8630   21.3390 H   0  0  0  0  0  0  0  0  0  0  0  0
   21.7540  -24.0080   16.5530 H   0  0  0  0  0  0  0  0  0  0  0  0
   21.5270  -26.5780   19.9870 H   0  0  0  0  0  0  0  0  0  0  0  0
   21.0710  -26.1650   17.5930 H   0  0  0  0  0  0  0  0  0  0  0  0
  1  2  1  0
  2  3  2  0
  2  4  1  0
  4  5  1  0
  4  6  1  0
  5  7  1  0
  6  8  1  0
  7  9  1  0
  8  9  1  0
  7 10  1  0
  9 11  1  0
 10 12  1  0
 10 13  2  0
 11 14  2  0
 11 15  1  0
 13 16  1  0
 12 17  2  0
 16 17  1  0
 16 18  1  0
 15 19  1  0
 19 20  2  0
 19 21  1  0
 20 22  1  0
 21 23  2  0
 22 24  2  0
 23 24  1  0
  1 25  1  0
  1 26  1  0
  4 27  1  6
  5 28  1  1
  5 29  1  0
  6 30  1  1
  6 31  1  0
  7 32  1  6
  8 33  1  6
  8 34  1  0
 13 35  1  0
 15 36  1  0
 18 37  1  1
 18 38  1  0
 18 39  1  0
 20 40  1  0
 21 41  1  0
 22 42  1  0
 23 43  1  0
 24 44  1  0
M  END
