
     RDKit          3D

 42 44  0  0  0  0  0  0  0  0999 V2000
    9.1320   -0.4850   23.5360 C   0  0  1  0  0  0  0  0  0  0  0  0
    8.6930    0.1670   22.1400 C   0  0  0  0  0  0  0  0  0  0  0  0
    9.3180    1.0900   21.6330 O   0  0  0  0  0  0  0  0  0  0  0  0
   10.5740   -0.2790   23.8770 N   0  0  0  0  0  0  0  0  0  0  0  0
    7.5540   -0.3910   21.5680 N   0  0  0  0  0  0  0  0  0  0  0  0
   11.2270    0.9890   23.5140 C   0  0  0  0  0  0  0  0  0  0  0  0
   11.3900   -1.5150   23.8800 C   0  0  1  0  0  0  0  0  0  0  0  0
   12.5180    0.9870   22.9890 C   0  0  0  0  0  0  0  0  0  0  0  0
   12.2930   -1.5150   22.6450 C   0  0  2  0  0  0  0  0  0  0  0  0
   10.5960    2.2410   23.6720 C   0  0  0  0  0  0  0  0  0  0  0  0
    6.8660    0.0670   20.4150 C   0  0  0  0  0  0  0  0  0  0  0  0
   13.1640   -0.2450   22.8310 C   0  0  1  0  0  0  0  0  0  0  0  0
   13.1920    2.1650   22.6150 C   0  0  0  0  0  0  0  0  0  0  0  0
   11.2280    3.4460   23.3110 C   0  0  0  0  0  0  0  0  0  0  0  0
    5.7990    0.9570   20.5630 C   0  0  0  0  0  0  0  0  0  0  0  0
    7.1560   -0.2900   19.1010 C   0  0  0  0  0  0  0  0  0  0  0  0
   10.4050    4.9470   23.5230 S   0  0  2  0  0  0  0  0  0  0  0  0
   12.6360    3.4340   22.7320 C   0  0  0  0  0  0  0  0  0  0  0  0
    5.1240    1.4160   19.4510 C   0  0  0  0  0  0  0  0  0  0  0  0
    6.4880    0.1690   18.0020 N   0  0  0  0  0  0  0  0  0  0  0  0
   10.6360    5.4700   24.8410 O   0  0  0  0  0  0  0  0  0  0  0  0
    9.0690    4.8300   23.0020 O   0  0  0  0  0  0  0  0  0  0  0  0
   11.2510    5.9750   22.4960 N   0  0  0  0  0  0  0  0  0  0  0  0
    5.4700    1.0250   18.1900 C   0  0  0  0  0  0  0  0  0  0  0  0
    8.4930   -0.0280   24.3020 H   0  0  0  0  0  0  0  0  0  0  0  0
    8.8750   -1.5540   23.4930 H   0  0  0  0  0  0  0  0  0  0  0  0
    7.3780   -1.3450   21.8800 H   0  0  0  0  0  0  0  0  0  0  0  0
   11.8700   -1.6050   24.8540 H   0  0  0  0  0  0  0  0  0  0  0  0
   10.7100   -2.3750   23.8080 H   0  0  0  0  0  0  0  0  0  0  0  0
   11.6520   -1.3590   21.7680 H   0  0  0  0  0  0  0  0  0  0  0  0
   12.7960   -2.4570   22.4450 H   0  0  0  0  0  0  0  0  0  0  0  0
    9.5810    2.3110   24.0820 H   0  0  0  0  0  0  0  0  0  0  0  0
   13.8290   -0.1870   21.9780 H   0  0  0  0  0  0  0  0  0  0  0  0
   13.7840   -0.4120   23.7100 H   0  0  0  0  0  0  0  0  0  0  0  0
   14.1990    2.0940   22.2170 H   0  0  0  0  0  0  0  0  0  0  0  0
    5.4270    1.3480   21.5170 H   0  0  0  0  0  0  0  0  0  0  0  0
    7.9570   -0.9790   18.8510 H   0  0  0  0  0  0  0  0  0  0  0  0
   13.1730    4.3320   22.4360 H   0  0  0  0  0  0  0  0  0  0  0  0
    4.2880    2.1180   19.5810 H   0  0  0  0  0  0  0  0  0  0  0  0
   10.8750    5.8370   21.5550 H   0  0  0  0  0  0  0  0  0  0  0  0
   12.2540    5.8420   22.5240 H   0  0  0  0  0  0  0  0  0  0  0  0
    4.9510    1.3800   17.3040 H   0  0  0  0  0  0  0  0  0  0  0  0
  1  2  1  0
  2  3  2  0
  1  4  1  0
  2  5  1  0
  4  6  1  0
  4  7  1  0
  6  8  2  0
  7  9  1  0
  6 10  1  0
  5 11  1  0
  8 12  1  0
  9 12  1  0
  8 13  1  0
 10 14  2  0
 11 15  2  0
 11 16  1  0
 14 17  1  0
 13 18  2  0
 14 18  1  0
 15 19  1  0
 16 20  2  0
 17 21  2  0
 17 22  2  0
 17 23  1  6
 19 24  2  0
 20 24  1  0
  1 25  1  1
  1 26  1  0
  5 27  1  0
  7 28  1  1
  7 29  1  0
  9 30  1  6
  9 31  1  0
 10 32  1  0
 12 33  1  6
 12 34  1  0
 13 35  1  0
 15 36  1  0
 16 37  1  0
 18 38  1  0
 19 39  1  0
 23 40  1  0
 23 41  1  0
 24 42  1  0
M  END
