
     RDKit          3D

 45 47  0  0  0  0  0  0  0  0999 V2000
    9.4610   -1.0420   24.2920 C   0  0  1  0  0  0  0  0  0  0  0  0
   10.7160   -0.5640   24.0050 N   0  0  0  0  0  0  0  0  0  0  0  0
   11.6510   -1.6780   23.7180 C   0  0  1  0  0  0  0  0  0  0  0  0
    9.2980   -2.5390   24.4300 N   0  0  0  0  0  0  0  0  0  0  0  0
   11.1040    0.7880   23.6840 C   0  0  0  0  0  0  0  0  0  0  0  0
    7.9250   -2.8840   24.8220 C   0  0  2  0  0  0  0  0  0  0  0  0
   10.4260   -3.1830   25.1280 C   0  0  1  0  0  0  0  0  0  0  0  0
   12.4800    0.9700   23.1370 C   0  0  0  0  0  0  0  0  0  0  0  0
   12.5380   -1.4100   22.5410 C   0  0  2  0  0  0  0  0  0  0  0  0
   10.3770    2.0100   23.8060 C   0  0  0  0  0  0  0  0  0  0  0  0
    7.6810   -4.2910   25.3810 C   0  0  2  0  0  0  0  0  0  0  0  0
   10.2680   -4.5550   25.7900 C   0  0  2  0  0  0  0  0  0  0  0  0
   13.3410   -0.2190   22.9390 C   0  0  1  0  0  0  0  0  0  0  0  0
   12.9830    2.2230   22.8030 C   0  0  0  0  0  0  0  0  0  0  0  0
   10.9490    3.2810   23.4280 C   0  0  0  0  0  0  0  0  0  0  0  0
    8.8510   -5.0660   25.9990 C   0  0  1  0  0  0  0  0  0  0  0  0
   10.0550    4.8230   23.5590 S   0  0  2  0  0  0  0  0  0  0  0  0
    8.6210   -5.2640   27.3910 O   0  0  0  0  0  0  0  0  0  0  0  0
   12.2360    3.3650   22.9380 C   0  0  0  0  0  0  0  0  0  0  0  0
   10.1170    5.3910   24.8790 O   0  0  0  0  0  0  0  0  0  0  0  0
    8.8020    4.6750   22.8750 O   0  0  0  0  0  0  0  0  0  0  0  0
   11.0270    5.8520   22.6410 N   0  0  0  0  0  0  0  0  0  0  0  0
    9.0660   -0.5990   25.2070 H   0  0  0  0  0  0  0  0  0  0  0  0
    8.8080   -0.7000   23.4760 H   0  0  0  0  0  0  0  0  0  0  0  0
   12.2580   -1.8970   24.6090 H   0  0  0  0  0  0  0  0  0  0  0  0
   11.0950   -2.5860   23.4710 H   0  0  0  0  0  0  0  0  0  0  0  0
    7.2750   -2.7680   23.9470 H   0  0  0  0  0  0  0  0  0  0  0  0
    7.5750   -2.1450   25.5440 H   0  0  0  0  0  0  0  0  0  0  0  0
   11.2130   -3.2930   24.3770 H   0  0  0  0  0  0  0  0  0  0  0  0
   10.8500   -2.4990   25.8510 H   0  0  0  0  0  0  0  0  0  0  0  0
   11.9530   -1.1790   21.6470 H   0  0  0  0  0  0  0  0  0  0  0  0
   13.1830   -2.2710   22.3230 H   0  0  0  0  0  0  0  0  0  0  0  0
    9.3630    2.0230   24.1880 H   0  0  0  0  0  0  0  0  0  0  0  0
    7.2580   -4.9100   24.5770 H   0  0  0  0  0  0  0  0  0  0  0  0
    6.8800   -4.2380   26.1300 H   0  0  0  0  0  0  0  0  0  0  0  0
   10.7640   -4.5230   26.7620 H   0  0  0  0  0  0  0  0  0  0  0  0
   10.8170   -5.2900   25.2100 H   0  0  0  0  0  0  0  0  0  0  0  0
   14.0680   -0.0120   22.1780 H   0  0  0  0  0  0  0  0  0  0  0  0
   13.8370   -0.4370   23.8810 H   0  0  0  0  0  0  0  0  0  0  0  0
   13.9900    2.3160   22.4280 H   0  0  0  0  0  0  0  0  0  0  0  0
    8.8380   -6.0740   25.5770 H   0  0  0  0  0  0  0  0  0  0  0  0
    7.7070   -4.9970   27.5870 H   0  0  0  0  0  0  0  0  0  0  0  0
   12.6700    4.3200   22.6610 H   0  0  0  0  0  0  0  0  0  0  0  0
   10.7200    5.7580   21.6600 H   0  0  0  0  0  0  0  0  0  0  0  0
   12.0240    5.6610   22.7410 H   0  0  0  0  0  0  0  0  0  0  0  0
  1  2  1  0
  2  3  1  0
  1  4  1  0
  2  5  1  0
  4  6  1  0
  4  7  1  0
  5  8  2  0
  3  9  1  0
  5 10  1  0
  6 11  1  0
  7 12  1  0
  8 13  1  0
  9 13  1  0
  8 14  1  0
 10 15  2  0
 11 16  1  0
 12 16  1  0
 15 17  1  0
 16 18  1  0
 14 19  2  0
 15 19  1  0
 17 20  2  0
 17 21  2  0
 17 22  1  6
  1 23  1  1
  1 24  1  0
  3 25  1  1
  3 26  1  0
  6 27  1  6
  6 28  1  0
  7 29  1  6
  7 30  1  0
  9 31  1  6
  9 32  1  0
 10 33  1  0
 11 34  1  6
 11 35  1  0
 12 36  1  1
 12 37  1  0
 13 38  1  6
 13 39  1  0
 14 40  1  0
 16 41  1  6
 18 42  1  0
 19 43  1  0
 22 44  1  0
 22 45  1  0
M  END
