
     RDKit          3D

 36 37  0  0  0  0  0  0  0  0999 V2000
    9.2950   -0.6040   24.6310 C   0  0  1  0  0  0  0  0  0  0  0  0
    9.2950    0.0260   26.0110 C   0  0  1  0  0  0  0  0  0  0  0  0
    8.0400   -0.2470   26.8400 C   0  0  1  0  0  0  0  0  0  0  0  0
   10.5770   -0.3590   23.9600 N   0  0  0  0  0  0  0  0  0  0  0  0
   11.0330    0.9250   23.6580 C   0  0  0  0  0  0  0  0  0  0  0  0
   11.0370   -1.4450   23.0690 C   0  0  1  0  0  0  0  0  0  0  0  0
   12.4480    1.0660   23.1710 C   0  0  0  0  0  0  0  0  0  0  0  0
   12.4230   -1.4930   22.9980 C   0  0  1  0  0  0  0  0  0  0  0  0
   10.3000    2.1130   23.7640 C   0  0  0  0  0  0  0  0  0  0  0  0
   12.8600   -2.0400   21.7420 C   0  0  0  0  0  0  0  0  0  0  0  0
   13.2220   -0.2270   23.0920 C   0  0  1  0  0  0  0  0  0  0  0  0
   13.0310    2.2550   22.8240 C   0  0  0  0  0  0  0  0  0  0  0  0
   10.9280    3.4690   23.3890 C   0  0  0  0  0  0  0  0  0  0  0  0
   10.0410    5.0000   23.5190 S   0  0  2  0  0  0  0  0  0  0  0  0
   13.2580   -2.4520   20.7720 N   0  0  0  0  0  0  0  0  0  0  0  0
   12.3660    3.4560   22.8960 C   0  0  0  0  0  0  0  0  0  0  0  0
   10.0290    5.4520   24.8870 O   0  0  0  0  0  0  0  0  0  0  0  0
    8.8090    4.8910   22.7800 O   0  0  0  0  0  0  0  0  0  0  0  0
   11.0210    6.0340   22.6240 N   0  0  0  0  0  0  0  0  0  0  0  0
    9.1380   -1.6850   24.7160 H   0  0  0  0  0  0  0  0  0  0  0  0
    8.4590   -0.2380   24.0210 H   0  0  0  0  0  0  0  0  0  0  0  0
   10.1780   -0.2930   26.5730 H   0  0  0  0  0  0  0  0  0  0  0  0
    9.3860    1.1010   25.8810 H   0  0  0  0  0  0  0  0  0  0  0  0
    7.5580   -1.1650   26.5000 H   0  0  0  0  0  0  0  0  0  0  0  0
    8.3260   -0.3610   27.8900 H   0  0  0  0  0  0  0  0  0  0  0  0
    7.3210    0.5630   26.7260 H   0  0  0  0  0  0  0  0  0  0  0  0
   10.6310   -2.4050   23.4180 H   0  0  0  0  0  0  0  0  0  0  0  0
   10.6340   -1.2870   22.0580 H   0  0  0  0  0  0  0  0  0  0  0  0
   12.7720   -2.1720   23.7880 H   0  0  0  0  0  0  0  0  0  0  0  0
    9.2720    2.1090   24.1110 H   0  0  0  0  0  0  0  0  0  0  0  0
   13.9070   -0.1420   22.2520 H   0  0  0  0  0  0  0  0  0  0  0  0
   13.8140   -0.3260   23.9910 H   0  0  0  0  0  0  0  0  0  0  0  0
   14.0580    2.2620   22.4860 H   0  0  0  0  0  0  0  0  0  0  0  0
   12.8770    4.3740   22.6090 H   0  0  0  0  0  0  0  0  0  0  0  0
   10.7580    5.8970   21.6330 H   0  0  0  0  0  0  0  0  0  0  0  0
   11.9980    5.8230   22.7880 H   0  0  0  0  0  0  0  0  0  0  0  0
  1  2  1  0
  2  3  1  0
  1  4  1  0
  4  5  1  0
  4  6  1  0
  5  7  2  0
  6  8  1  0
  5  9  1  0
  8 10  1  0
  7 11  1  0
  8 11  1  0
  7 12  1  0
  9 13  2  0
 13 14  1  0
 10 15  3  0
 12 16  2  0
 13 16  1  0
 14 17  2  0
 14 18  2  0
 14 19  1  6
  1 20  1  1
  1 21  1  0
  2 22  1  1
  2 23  1  0
  3 24  1  6
  3 25  1  0
  3 26  1  0
  6 27  1  1
  6 28  1  0
  8 29  1  1
  9 30  1  0
 11 31  1  6
 11 32  1  0
 12 33  1  0
 16 34  1  0
 19 35  1  0
 19 36  1  0
M  END
