
     RDKit          3D

 43 45  0  0  0  0  0  0  0  0999 V2000
   24.4180  -14.8300   24.8640 C   0  0  1  0  0  0  0  0  0  0  0  0
   23.6260  -15.4030   26.0370 C   0  0  0  0  0  0  0  0  0  0  0  0
   23.4540  -14.6940   27.0050 O   0  0  0  0  0  0  0  0  0  0  0  0
   23.1750  -16.7180   25.8490 N   0  0  0  0  0  0  0  0  0  0  0  0
   23.5520  -17.5420   24.7570 C   0  0  2  0  0  0  0  0  0  0  0  0
   23.0490  -18.8970   24.5650 C   0  0  1  0  0  0  0  0  0  0  0  0
   25.0830  -17.7090   24.8970 C   0  0  1  0  0  0  0  0  0  0  0  0
   25.4750  -17.9350   26.2330 O   0  0  0  0  0  0  0  0  0  0  0  0
   23.5020  -19.4450   23.3070 C   0  0  2  0  0  0  0  0  0  0  0  0
   25.5790  -18.9070   24.1180 C   0  0  2  0  0  0  0  0  0  0  0  0
   23.2880  -20.9580   22.8240 C   0  0  1  0  0  0  0  0  0  0  0  0
   24.8320  -19.2010   23.0110 C   0  0  1  0  0  0  0  0  0  0  0  0
   25.4550  -20.2830   22.3600 O   0  0  0  0  0  0  0  0  0  0  0  0
   21.9820  -21.4870   23.0480 O   0  0  0  0  0  0  0  0  0  0  0  0
   23.5760  -21.0080   21.3650 N   0  0  0  0  0  0  0  0  0  0  0  0
   23.4010  -22.2300   20.5580 C   0  0  2  0  0  0  0  0  0  0  0  0
   24.8220  -20.3580   21.1310 C   0  0  2  0  0  0  0  0  0  0  0  0
   25.6130  -20.9600   20.0980 N   0  0  0  0  0  0  0  0  0  0  0  0
   23.5980  -21.8820   19.0660 C   0  0  2  0  0  0  0  0  0  0  0  0
   24.8990  -21.1140   18.8420 C   0  0  1  0  0  0  0  0  0  0  0  0
   24.2140  -15.4070   23.9530 H   0  0  0  0  0  0  0  0  0  0  0  0
   24.0930  -13.7950   24.6870 H   0  0  0  0  0  0  0  0  0  0  0  0
   25.4970  -14.7820   25.0630 H   0  0  0  0  0  0  0  0  0  0  0  0
   22.2920  -16.9480   26.3140 H   0  0  0  0  0  0  0  0  0  0  0  0
   23.1950  -16.9290   23.9390 H   0  0  0  0  0  0  0  0  0  0  0  0
   23.1450  -19.5600   25.4200 H   0  0  0  0  0  0  0  0  0  0  0  0
   21.9680  -18.8030   24.4680 H   0  0  0  0  0  0  0  0  0  0  0  0
   25.6060  -16.8140   24.5500 H   0  0  0  0  0  0  0  0  0  0  0  0
   25.7780  -17.0790   26.5850 H   0  0  0  0  0  0  0  0  0  0  0  0
   22.9420  -18.8510   22.5800 H   0  0  0  0  0  0  0  0  0  0  0  0
   25.6110  -19.7780   24.7860 H   0  0  0  0  0  0  0  0  0  0  0  0
   26.6280  -18.7640   23.8230 H   0  0  0  0  0  0  0  0  0  0  0  0
   23.9810  -21.5890   23.3850 H   0  0  0  0  0  0  0  0  0  0  0  0
   24.8920  -18.3460   22.3230 H   0  0  0  0  0  0  0  0  0  0  0  0
   21.4820  -21.0180   22.3670 H   0  0  0  0  0  0  0  0  0  0  0  0
   22.3870  -22.6220   20.7020 H   0  0  0  0  0  0  0  0  0  0  0  0
   24.1090  -23.0190   20.8510 H   0  0  0  0  0  0  0  0  0  0  0  0
   24.6470  -19.3370   20.7680 H   0  0  0  0  0  0  0  0  0  0  0  0
   25.8700  -21.8840   20.4390 H   0  0  0  0  0  0  0  0  0  0  0  0
   22.7410  -21.2990   18.7030 H   0  0  0  0  0  0  0  0  0  0  0  0
   23.5930  -22.8340   18.5170 H   0  0  0  0  0  0  0  0  0  0  0  0
   24.6990  -20.1300   18.4130 H   0  0  0  0  0  0  0  0  0  0  0  0
   25.5270  -21.6380   18.1110 H   0  0  0  0  0  0  0  0  0  0  0  0
  1  2  1  0
  2  3  2  0
  2  4  1  0
  4  5  1  0
  5  6  1  0
  5  7  1  0
  7  8  1  0
  6  9  1  0
  7 10  1  0
  9 11  1  0
  9 12  1  0
 10 12  1  0
 12 13  1  0
 11 14  1  0
 11 15  1  0
 15 16  1  0
 13 17  1  0
 15 17  1  0
 17 18  1  0
 16 19  1  0
 18 20  1  0
 19 20  1  0
  1 21  1  6
  1 22  1  0
  1 23  1  0
  4 24  1  0
  5 25  1  6
  6 26  1  1
  6 27  1  0
  7 28  1  6
  8 29  1  0
  9 30  1  6
 10 31  1  1
 10 32  1  0
 11 33  1  1
 12 34  1  6
 14 35  1  0
 16 36  1  6
 16 37  1  0
 17 38  1  6
 18 39  1  0
 19 40  1  6
 19 41  1  0
 20 42  1  6
 20 43  1  0
M  END
