
     RDKit          3D

 35 36  0  0  0  0  0  0  0  0999 V2000
    7.7300    0.2080   26.6960 C   0  0  1  0  0  0  0  0  0  0  0  0
    9.0560   -0.2250   26.1150 C   0  0  1  0  0  0  0  0  0  0  0  0
    9.6110    0.6790   25.1290 N   0  0  0  0  0  0  0  0  0  0  0  0
   10.5490    0.0560   24.2640 C   0  0  0  0  0  0  0  0  0  0  0  0
   11.8730    0.1540   24.4870 N   0  0  0  0  0  0  0  0  0  0  0  0
   10.0470   -0.6620   23.1550 C   0  0  0  0  0  0  0  0  0  0  0  0
    8.6780   -0.7410   22.9030 N   0  0  0  0  0  0  0  0  0  0  0  0
   12.7040   -0.4510   23.6130 C   0  0  0  0  0  0  0  0  0  0  0  0
   10.9200   -1.2630   22.3040 C   0  0  0  0  0  0  0  0  0  0  0  0
    8.1710   -0.0600   21.8140 C   0  0  0  0  0  0  0  0  0  0  0  0
   12.2500   -1.1550   22.5270 C   0  0  0  0  0  0  0  0  0  0  0  0
   13.0520   -1.7760   21.5960 C   0  0  0  0  0  0  0  0  0  0  0  0
    8.7120    0.9360   21.3420 O   0  0  0  0  0  0  0  0  0  0  0  0
    7.0110   -0.5850   21.3020 N   0  0  0  0  0  0  0  0  0  0  0  0
   13.5940   -2.2550   20.7480 N   0  0  0  0  0  0  0  0  0  0  0  0
    6.3850   -0.0060   20.1910 C   0  0  0  0  0  0  0  0  0  0  0  0
    5.1920    0.7080   20.3690 C   0  0  0  0  0  0  0  0  0  0  0  0
    6.8780   -0.0820   18.9120 C   0  0  0  0  0  0  0  0  0  0  0  0
    4.5700    1.3090   19.2730 C   0  0  0  0  0  0  0  0  0  0  0  0
    6.2960    0.4880   17.8410 N   0  0  0  0  0  0  0  0  0  0  0  0
    5.1600    1.1730   18.0380 C   0  0  0  0  0  0  0  0  0  0  0  0
    6.9330   -0.4570   26.3470 H   0  0  0  0  0  0  0  0  0  0  0  0
    7.7550    0.1630   27.7910 H   0  0  0  0  0  0  0  0  0  0  0  0
    7.4700    1.2320   26.4060 H   0  0  0  0  0  0  0  0  0  0  0  0
    9.7790   -0.4260   26.9110 H   0  0  0  0  0  0  0  0  0  0  0  0
    8.8870   -1.1680   25.5880 H   0  0  0  0  0  0  0  0  0  0  0  0
    8.8700    1.0220   24.5210 H   0  0  0  0  0  0  0  0  0  0  0  0
    8.2840   -1.6460   23.1250 H   0  0  0  0  0  0  0  0  0  0  0  0
   13.7600   -0.3470   23.8190 H   0  0  0  0  0  0  0  0  0  0  0  0
   10.5740   -1.8240   21.4360 H   0  0  0  0  0  0  0  0  0  0  0  0
    6.8030   -1.5460   21.5110 H   0  0  0  0  0  0  0  0  0  0  0  0
    4.7360    0.8090   21.3490 H   0  0  0  0  0  0  0  0  0  0  0  0
    7.7890   -0.6160   18.6690 H   0  0  0  0  0  0  0  0  0  0  0  0
    3.6480    1.8700   19.3860 H   0  0  0  0  0  0  0  0  0  0  0  0
    4.7240    1.6230   17.1540 H   0  0  0  0  0  0  0  0  0  0  0  0
  1  2  1  0
  2  3  1  0
  3  4  1  0
  4  5  2  0
  4  6  1  0
  6  7  1  0
  5  8  1  0
  6  9  2  0
  7 10  1  0
  8 11  2  0
  9 11  1  0
 11 12  1  0
 10 13  2  0
 10 14  1  0
 12 15  3  0
 14 16  1  0
 16 17  2  0
 16 18  1  0
 17 19  1  0
 18 20  2  0
 19 21  2  0
 20 21  1  0
  1 22  1  6
  1 23  1  0
  1 24  1  0
  2 25  1  1
  2 26  1  0
  3 27  1  0
  7 28  1  0
  8 29  1  0
  9 30  1  0
 14 31  1  0
 17 32  1  0
 18 33  1  0
 19 34  1  0
 21 35  1  0
M  END
