
     RDKit          3D

 36 37  0  0  0  0  0  0  0  0999 V2000
    7.7320    0.2780   26.6330 C   0  0  1  0  0  0  0  0  0  0  0  0
    9.0480   -0.2180   26.0780 C   0  0  1  0  0  0  0  0  0  0  0  0
    9.7950    0.7430   25.2810 N   0  0  0  0  0  0  0  0  0  0  0  0
   10.6920    0.1330   24.3870 C   0  0  0  0  0  0  0  0  0  0  0  0
   12.0220    0.1610   24.5450 N   0  0  0  0  0  0  0  0  0  0  0  0
   10.1260   -0.5050   23.3120 C   0  0  0  0  0  0  0  0  0  0  0  0
    8.6710   -0.5170   23.1090 C   0  0  2  0  0  0  0  0  0  0  0  0
   12.7790   -0.4570   23.6200 C   0  0  0  0  0  0  0  0  0  0  0  0
   10.9140   -1.1380   22.3830 C   0  0  0  0  0  0  0  0  0  0  0  0
    8.3270    0.2370   21.8370 C   0  0  0  0  0  0  0  0  0  0  0  0
   12.2590   -1.1090   22.5400 C   0  0  0  0  0  0  0  0  0  0  0  0
   13.0280   -1.7410   21.5810 C   0  0  0  0  0  0  0  0  0  0  0  0
    9.0070    1.1880   21.3940 O   0  0  0  0  0  0  0  0  0  0  0  0
    7.1950   -0.2870   21.2960 N   0  0  0  0  0  0  0  0  0  0  0  0
   13.5730   -2.2440   20.7510 N   0  0  0  0  0  0  0  0  0  0  0  0
    6.5700    0.1970   20.1760 C   0  0  0  0  0  0  0  0  0  0  0  0
    5.4490    1.0050   20.3430 C   0  0  0  0  0  0  0  0  0  0  0  0
    6.9850   -0.0690   18.9090 C   0  0  0  0  0  0  0  0  0  0  0  0
    4.7980    1.5120   19.2260 C   0  0  0  0  0  0  0  0  0  0  0  0
    6.3730    0.4110   17.8160 N   0  0  0  0  0  0  0  0  0  0  0  0
    5.2980    1.1890   17.9930 C   0  0  0  0  0  0  0  0  0  0  0  0
    7.5450    1.3040   26.3110 H   0  0  0  0  0  0  0  0  0  0  0  0
    6.8930   -0.3430   26.2990 H   0  0  0  0  0  0  0  0  0  0  0  0
    7.7390    0.2590   27.7270 H   0  0  0  0  0  0  0  0  0  0  0  0
    9.6880   -0.4450   26.9340 H   0  0  0  0  0  0  0  0  0  0  0  0
    8.9020   -1.1510   25.5270 H   0  0  0  0  0  0  0  0  0  0  0  0
    9.1570    1.3230   24.7350 H   0  0  0  0  0  0  0  0  0  0  0  0
    8.1220   -0.0870   23.9520 H   0  0  0  0  0  0  0  0  0  0  0  0
    8.3120   -1.5500   23.0100 H   0  0  0  0  0  0  0  0  0  0  0  0
   13.8390   -0.4040   23.7900 H   0  0  0  0  0  0  0  0  0  0  0  0
   10.4690   -1.6470   21.5290 H   0  0  0  0  0  0  0  0  0  0  0  0
    6.9810   -1.2550   21.5520 H   0  0  0  0  0  0  0  0  0  0  0  0
    5.0740    1.2460   21.3320 H   0  0  0  0  0  0  0  0  0  0  0  0
    7.8450   -0.6930   18.6910 H   0  0  0  0  0  0  0  0  0  0  0  0
    3.9220    2.1440   19.3210 H   0  0  0  0  0  0  0  0  0  0  0  0
    4.8330    1.5590   17.0900 H   0  0  0  0  0  0  0  0  0  0  0  0
  1  2  1  0
  2  3  1  0
  3  4  1  0
  4  5  2  0
  4  6  1  0
  6  7  1  0
  5  8  1  0
  6  9  2  0
  7 10  1  0
  8 11  2  0
  9 11  1  0
 11 12  1  0
 10 13  2  0
 10 14  1  0
 12 15  3  0
 14 16  1  0
 16 17  2  0
 16 18  1  0
 17 19  1  0
 18 20  2  0
 19 21  2  0
 20 21  1  0
  1 22  1  1
  1 23  1  0
  1 24  1  0
  2 25  1  1
  2 26  1  0
  3 27  1  0
  7 28  1  1
  7 29  1  0
  8 30  1  0
  9 31  1  0
 14 32  1  0
 17 33  1  0
 18 34  1  0
 19 35  1  0
 21 36  1  0
M  END
