
     RDKit          3D

 50 52  0  0  0  0  0  0  0  0999 V2000
   13.1700   -0.9110   22.2950 C   0  0  1  0  0  0  0  0  0  0  0  0
   12.0660   -1.0520   23.2130 N   0  0  0  0  0  0  0  0  0  0  0  0
   11.5130    0.1410   23.8550 C   0  0  1  0  0  0  0  0  0  0  0  0
   10.9650   -1.8790   22.7630 C   0  0  1  0  0  0  0  0  0  0  0  0
   10.0700   -2.1470   23.7820 C   0  0  2  0  0  0  0  0  0  0  0  0
   10.6140   -0.1340   24.8950 C   0  0  2  0  0  0  0  0  0  0  0  0
    8.9010   -2.8890   23.2330 C   0  0  2  0  0  0  0  0  0  0  0  0
    9.5490   -1.1220   24.6110 N   0  0  0  0  0  0  0  0  0  0  0  0
    8.8900   -1.7010   25.7300 C   0  0  0  0  0  0  0  0  0  0  0  0
    8.6810   -3.8360   24.2250 C   0  0  1  0  0  0  0  0  0  0  0  0
    8.4750   -3.1590   25.5540 C   0  0  0  0  0  0  0  0  0  0  0  0
    8.6720   -0.9560   27.0860 C   0  0  2  0  0  0  0  0  0  0  0  0
    7.2810   -0.6230   27.2910 O   0  0  0  0  0  0  0  0  0  0  0  0
    7.8110   -4.2440   26.7440 S   0  0  1  0  0  0  0  0  0  0  0  0
    6.1370   -4.5720   26.2660 C   0  0  1  0  0  0  0  0  0  0  0  0
    8.5260   -5.4890   26.5710 O   0  0  0  0  0  0  0  0  0  0  0  0
    7.8590   -3.6070   28.0390 O   0  0  0  0  0  0  0  0  0  0  0  0
    6.9690    0.4440   28.1140 C   0  0  0  0  0  0  0  0  0  0  0  0
    7.6480    1.6520   28.1820 C   0  0  0  0  0  0  0  0  0  0  0  0
    5.8420    0.2650   28.9570 C   0  0  0  0  0  0  0  0  0  0  0  0
    7.2370    2.6750   29.0580 C   0  0  0  0  0  0  0  0  0  0  0  0
    5.4340    1.2810   29.8260 C   0  0  0  0  0  0  0  0  0  0  0  0
    6.1310    2.4960   29.8800 C   0  0  0  0  0  0  0  0  0  0  0  0
    5.6880    3.5850   30.8130 C   0  0  1  0  0  0  0  0  0  0  0  0
   13.5190    0.1160   22.2050 H   0  0  0  0  0  0  0  0  0  0  0  0
   13.9800   -1.5310   22.6630 H   0  0  0  0  0  0  0  0  0  0  0  0
   12.8500   -1.3080   21.3330 H   0  0  0  0  0  0  0  0  0  0  0  0
   12.3250    0.7800   24.2270 H   0  0  0  0  0  0  0  0  0  0  0  0
   10.9970    0.7340   23.0900 H   0  0  0  0  0  0  0  0  0  0  0  0
   10.4590   -1.4150   21.9040 H   0  0  0  0  0  0  0  0  0  0  0  0
   11.3900   -2.8180   22.3860 H   0  0  0  0  0  0  0  0  0  0  0  0
   10.5520   -2.8500   24.4580 H   0  0  0  0  0  0  0  0  0  0  0  0
   10.1520    0.8060   25.1490 H   0  0  0  0  0  0  0  0  0  0  0  0
   11.1610   -0.4740   25.7790 H   0  0  0  0  0  0  0  0  0  0  0  0
    9.1230   -3.1990   22.2160 H   0  0  0  0  0  0  0  0  0  0  0  0
    8.0300   -2.2290   23.1630 H   0  0  0  0  0  0  0  0  0  0  0  0
    7.8650   -4.5430   24.0800 H   0  0  0  0  0  0  0  0  0  0  0  0
    9.5920   -4.4300   24.2860 H   0  0  0  0  0  0  0  0  0  0  0  0
    9.2470   -0.0360   27.1620 H   0  0  0  0  0  0  0  0  0  0  0  0
    9.0200   -1.6020   27.8990 H   0  0  0  0  0  0  0  0  0  0  0  0
    5.9710   -5.6390   26.2980 H   0  0  0  0  0  0  0  0  0  0  0  0
    5.4800   -4.0760   26.9830 H   0  0  0  0  0  0  0  0  0  0  0  0
    5.9430   -4.1810   25.2680 H   0  0  0  0  0  0  0  0  0  0  0  0
    8.5090    1.8370   27.5590 H   0  0  0  0  0  0  0  0  0  0  0  0
    5.2920   -0.6730   28.9240 H   0  0  0  0  0  0  0  0  0  0  0  0
    7.7950    3.6110   29.0850 H   0  0  0  0  0  0  0  0  0  0  0  0
    4.5650    1.1170   30.4590 H   0  0  0  0  0  0  0  0  0  0  0  0
    5.0080    3.1940   31.5770 H   0  0  0  0  0  0  0  0  0  0  0  0
    6.5450    4.0290   31.3340 H   0  0  0  0  0  0  0  0  0  0  0  0
    5.1710    4.3700   30.2490 H   0  0  0  0  0  0  0  0  0  0  0  0
  1  2  1  0
  2  3  1  0
  2  4  1  0
  4  5  1  0
  3  6  1  0
  5  7  1  0
  5  8  1  0
  6  8  1  0
  8  9  1  0
  7 10  1  0
  9 11  2  0
 10 11  1  0
  9 12  1  0
 12 13  1  0
 14 11  1  6
 14 15  1  0
 14 16  2  0
 14 17  2  0
 13 18  1  0
 18 19  2  0
 18 20  1  0
 19 21  1  0
 20 22  2  0
 21 23  2  0
 22 23  1  0
 23 24  1  0
  1 25  1  6
  1 26  1  0
  1 27  1  0
  3 28  1  1
  3 29  1  0
  4 30  1  6
  4 31  1  0
  5 32  1  1
  6 33  1  1
  6 34  1  0
  7 35  1  6
  7 36  1  0
 10 37  1  6
 10 38  1  0
 12 39  1  6
 12 40  1  0
 15 41  1  6
 15 42  1  0
 15 43  1  0
 19 44  1  0
 20 45  1  0
 21 46  1  0
 22 47  1  0
 24 48  1  1
 24 49  1  0
 24 50  1  0
M  END
