
     RDKit          3D

 52 55  0  0  0  0  0  0  0  0999 V2000
   12.7760   -1.2370   22.3460 C   0  0  0  0  0  0  0  0  0  0  0  0
   11.9060   -1.3060   23.3940 N   0  0  0  0  0  0  0  0  0  0  0  0
   11.1700   -0.0990   23.9730 C   0  0  1  0  0  0  0  0  0  0  0  0
   13.5720   -1.2970   21.2320 N   0  0  0  0  0  0  0  0  0  0  0  0
   10.9490   -2.4460   23.2260 C   0  0  1  0  0  0  0  0  0  0  0  0
   10.4420   -2.8380   24.4340 C   0  0  1  0  0  0  0  0  0  0  0  0
   10.5290   -0.4890   25.1840 C   0  0  1  0  0  0  0  0  0  0  0  0
    9.4840    0.4130   25.8600 C   0  0  2  0  0  0  0  0  0  0  0  0
    9.7970   -1.6970   25.0120 N   0  0  0  0  0  0  0  0  0  0  0  0
    8.4320   -1.5140   25.1500 C   0  0  0  0  0  0  0  0  0  0  0  0
    8.0520   -0.1130   25.6210 C   0  0  1  0  0  0  0  0  0  0  0  0
    7.5290   -2.3160   24.9780 O   0  0  0  0  0  0  0  0  0  0  0  0
    7.3540   -0.3420   26.8740 O   0  0  0  0  0  0  0  0  0  0  0  0
    7.4290    0.7870   24.4610 C   0  0  0  0  0  0  0  0  0  0  0  0
    8.1690    1.5670   23.8240 O   0  0  0  0  0  0  0  0  0  0  0  0
    7.0260    0.6250   27.7970 C   0  0  0  0  0  0  0  0  0  0  0  0
    6.0930    0.7660   24.0980 N   0  0  0  0  0  0  0  0  0  0  0  0
    7.6370    2.0020   27.9570 C   0  0  0  0  0  0  0  0  0  0  0  0
    5.9040    0.2550   28.7780 C   0  0  0  0  0  0  0  0  0  0  0  0
    5.5510    1.4410   22.8950 C   0  0  2  0  0  0  0  0  0  0  0  0
    5.1330    0.6870   25.2020 C   0  0  1  0  0  0  0  0  0  0  0  0
    7.2170    3.0180   29.0030 C   0  0  0  0  0  0  0  0  0  0  0  0
    5.4470    1.2570   29.8490 C   0  0  0  0  0  0  0  0  0  0  0  0
    4.3200    0.9210   22.5200 C   0  0  2  0  0  0  0  0  0  0  0  0
    3.7330    0.2900   24.7340 C   0  0  2  0  0  0  0  0  0  0  0  0
    6.0990    2.6360   29.9650 C   0  0  0  0  0  0  0  0  0  0  0  0
    3.3310    0.9850   23.5550 O   0  0  0  0  0  0  0  0  0  0  0  0
    5.6340    3.6000   31.0150 C   0  0  1  0  0  0  0  0  0  0  0  0
   11.9080    0.6920   24.1310 H   0  0  0  0  0  0  0  0  0  0  0  0
   10.4220    0.2610   23.2600 H   0  0  0  0  0  0  0  0  0  0  0  0
   10.1440   -2.1350   22.5470 H   0  0  0  0  0  0  0  0  0  0  0  0
   11.4720   -3.2660   22.7630 H   0  0  0  0  0  0  0  0  0  0  0  0
    9.7410   -3.6670   24.3160 H   0  0  0  0  0  0  0  0  0  0  0  0
   11.2530   -3.1480   25.1010 H   0  0  0  0  0  0  0  0  0  0  0  0
   11.3270   -0.6870   25.8830 H   0  0  0  0  0  0  0  0  0  0  0  0
    9.5780    1.4190   25.5250 H   0  0  0  0  0  0  0  0  0  0  0  0
    9.6790    0.4260   26.9420 H   0  0  0  0  0  0  0  0  0  0  0  0
    8.4340    2.2740   27.2620 H   0  0  0  0  0  0  0  0  0  0  0  0
    5.4270   -0.7190   28.7150 H   0  0  0  0  0  0  0  0  0  0  0  0
    6.2780    1.2680   22.0940 H   0  0  0  0  0  0  0  0  0  0  0  0
    5.4640    2.5150   23.0370 H   0  0  0  0  0  0  0  0  0  0  0  0
    5.5200   -0.0690   25.8970 H   0  0  0  0  0  0  0  0  0  0  0  0
    5.0960    1.6470   25.7290 H   0  0  0  0  0  0  0  0  0  0  0  0
    7.7090    3.9880   29.0500 H   0  0  0  0  0  0  0  0  0  0  0  0
    4.6490    0.9730   30.5290 H   0  0  0  0  0  0  0  0  0  0  0  0
    4.4190   -0.1300   22.2270 H   0  0  0  0  0  0  0  0  0  0  0  0
    3.9240    1.4670   21.6560 H   0  0  0  0  0  0  0  0  0  0  0  0
    2.9910    0.4920   25.5150 H   0  0  0  0  0  0  0  0  0  0  0  0
    3.6930   -0.7840   24.5170 H   0  0  0  0  0  0  0  0  0  0  0  0
    5.9140    3.2610   32.0190 H   0  0  0  0  0  0  0  0  0  0  0  0
    6.0880    4.5850   30.8630 H   0  0  0  0  0  0  0  0  0  0  0  0
    4.5440    3.6960   30.9730 H   0  0  0  0  0  0  0  0  0  0  0  0
  1  2  1  0
  2  3  1  0
  1  4  3  0
  2  5  1  0
  5  6  1  0
  3  7  1  0
  7  8  1  0
  6  9  1  0
  7  9  1  0
  9 10  1  0
  8 11  1  0
 10 11  1  0
 10 12  2  0
 11 13  1  1
 11 14  1  0
 14 15  2  0
 13 16  1  0
 14 17  1  0
 16 18  2  0
 16 19  1  0
 17 20  1  0
 17 21  1  0
 18 22  1  0
 19 23  2  0
 20 24  1  0
 21 25  1  0
 22 26  2  0
 23 26  1  0
 24 27  1  0
 25 27  1  0
 26 28  1  0
  3 29  1  1
  3 30  1  0
  5 31  1  6
  5 32  1  0
  6 33  1  6
  6 34  1  0
  7 35  1  1
  8 36  1  6
  8 37  1  0
 18 38  1  0
 19 39  1  0
 20 40  1  6
 20 41  1  0
 21 42  1  1
 21 43  1  0
 22 44  1  0
 23 45  1  0
 24 46  1  6
 24 47  1  0
 25 48  1  1
 25 49  1  0
 28 50  1  1
 28 51  1  0
 28 52  1  0
M  END
