
     RDKit          3D

 59 62  0  0  0  0  0  0  0  0999 V2000
    7.6370   -2.2160   25.3690 O   0  0  0  0  0  0  0  0  0  0  0  0
    8.5030   -1.3730   25.5590 C   0  0  0  0  0  0  0  0  0  0  0  0
    8.2770   -0.1960   26.4970 C   0  0  2  0  0  0  0  0  0  0  0  0
    9.7500   -1.4700   24.9310 N   0  0  0  0  0  0  0  0  0  0  0  0
    7.3140   -0.4910   27.5270 O   0  0  0  0  0  0  0  0  0  0  0  0
   10.0520   -2.7410   24.2860 C   0  0  2  0  0  0  0  0  0  0  0  0
   10.9080   -0.8510   25.4630 C   0  0  1  0  0  0  0  0  0  0  0  0
   11.3430   -2.9020   23.7330 C   0  0  2  0  0  0  0  0  0  0  0  0
   11.4040    0.0170   24.5810 C   0  0  2  0  0  0  0  0  0  0  0  0
    6.9530    0.5570   28.3180 C   0  0  0  0  0  0  0  0  0  0  0  0
   12.4980   -1.9520   24.0550 C   0  0  2  0  0  0  0  0  0  0  0  0
    7.6360    1.7660   28.4090 C   0  0  0  0  0  0  0  0  0  0  0  0
    5.8010    0.3540   29.0770 C   0  0  0  0  0  0  0  0  0  0  0  0
   10.5010    0.9210   23.9010 C   0  0  2  0  0  0  0  0  0  0  0  0
   12.4170   -0.5400   23.6900 C   0  0  1  0  0  0  0  0  0  0  0  0
    7.2040    2.7890   29.2380 C   0  0  0  0  0  0  0  0  0  0  0  0
    5.3370    1.4620   29.9700 C   0  0  0  0  0  0  0  0  0  0  0  0
   11.9000   -0.3990   22.4490 C   0  0  1  0  0  0  0  0  0  0  0  0
   10.5090    0.2560   22.5610 C   0  0  1  0  0  0  0  0  0  0  0  0
    9.3550   -0.5630   22.2300 N   0  0  0  0  0  0  0  0  0  0  0  0
    6.0540    2.6550   30.0270 C   0  0  0  0  0  0  0  0  0  0  0  0
    5.6060    3.7760   30.9150 C   0  0  1  0  0  0  0  0  0  0  0  0
    8.4870    0.1330   21.4130 C   0  0  0  0  0  0  0  0  0  0  0  0
    8.7340    1.3100   21.0920 O   0  0  0  0  0  0  0  0  0  0  0  0
    7.3630   -0.5500   20.9930 N   0  0  0  0  0  0  0  0  0  0  0  0
    6.5210    0.0560   20.0510 C   0  0  0  0  0  0  0  0  0  0  0  0
    5.3260    0.7190   20.3210 C   0  0  0  0  0  0  0  0  0  0  0  0
    6.9240    0.0040   18.7330 C   0  0  0  0  0  0  0  0  0  0  0  0
    4.6110    1.3000   19.2720 C   0  0  0  0  0  0  0  0  0  0  0  0
    6.2620    0.5530   17.7060 N   0  0  0  0  0  0  0  0  0  0  0  0
    5.1240    1.1930   17.9980 C   0  0  0  0  0  0  0  0  0  0  0  0
    7.9150    0.6460   25.8940 H   0  0  0  0  0  0  0  0  0  0  0  0
    9.2390    0.0350   26.9670 H   0  0  0  0  0  0  0  0  0  0  0  0
    9.3300   -2.8780   23.4700 H   0  0  0  0  0  0  0  0  0  0  0  0
    9.8470   -3.5480   24.9960 H   0  0  0  0  0  0  0  0  0  0  0  0
   10.6600   -0.3820   26.4150 H   0  0  0  0  0  0  0  0  0  0  0  0
   11.6630   -1.6120   25.6190 H   0  0  0  0  0  0  0  0  0  0  0  0
   11.2880   -3.1580   22.6800 H   0  0  0  0  0  0  0  0  0  0  0  0
   11.6890   -3.8160   24.2010 H   0  0  0  0  0  0  0  0  0  0  0  0
   13.4620   -2.3570   24.3620 H   0  0  0  0  0  0  0  0  0  0  0  0
    8.5290    1.9390   27.8270 H   0  0  0  0  0  0  0  0  0  0  0  0
    5.2560   -0.5860   29.0170 H   0  0  0  0  0  0  0  0  0  0  0  0
   10.8940    1.9390   23.8480 H   0  0  0  0  0  0  0  0  0  0  0  0
    9.5130    0.9230   24.3730 H   0  0  0  0  0  0  0  0  0  0  0  0
   13.3890   -0.0500   23.7770 H   0  0  0  0  0  0  0  0  0  0  0  0
    7.7740    3.7140   29.2730 H   0  0  0  0  0  0  0  0  0  0  0  0
    4.4390    1.3210   30.5700 H   0  0  0  0  0  0  0  0  0  0  0  0
   12.5960    0.2760   21.9450 H   0  0  0  0  0  0  0  0  0  0  0  0
   11.8780   -1.3300   21.8680 H   0  0  0  0  0  0  0  0  0  0  0  0
   10.4500    1.0790   21.8730 H   0  0  0  0  0  0  0  0  0  0  0  0
    9.5590   -1.5130   21.9140 H   0  0  0  0  0  0  0  0  0  0  0  0
    6.3400    3.9760   31.7020 H   0  0  0  0  0  0  0  0  0  0  0  0
    5.4850    4.7000   30.3410 H   0  0  0  0  0  0  0  0  0  0  0  0
    4.6460    3.5210   31.3860 H   0  0  0  0  0  0  0  0  0  0  0  0
    6.9290   -1.1450   21.6850 H   0  0  0  0  0  0  0  0  0  0  0  0
    4.9300    0.8080   21.3270 H   0  0  0  0  0  0  0  0  0  0  0  0
    7.8380   -0.5020   18.4430 H   0  0  0  0  0  0  0  0  0  0  0  0
    3.6790    1.8250   19.4530 H   0  0  0  0  0  0  0  0  0  0  0  0
    4.6180    1.6310   17.1540 H   0  0  0  0  0  0  0  0  0  0  0  0
  1  2  2  0
  2  3  1  0
  2  4  1  0
  3  5  1  0
  4  6  1  0
  4  7  1  0
  6  8  1  0
  7  9  1  0
  5 10  1  0
  8 11  1  0
 10 12  2  0
 10 13  1  0
  9 14  1  0
  9 15  1  6
 11 15  1  0
 12 16  1  0
 13 17  2  0
 15 18  1  0
 14 19  1  0
 18 19  1  0
 19 20  1  0
 16 21  2  0
 17 21  1  0
 21 22  1  0
 20 23  1  0
 23 24  2  0
 23 25  1  0
 25 26  1  0
 26 27  2  0
 26 28  1  0
 27 29  1  0
 28 30  2  0
 29 31  2  0
 30 31  1  0
  3 32  1  6
  3 33  1  0
  6 34  1  6
  6 35  1  0
  7 36  1  1
  7 37  1  0
  8 38  1  6
  8 39  1  0
 11 40  1  6
 12 41  1  0
 13 42  1  0
 14 43  1  6
 14 44  1  0
 15 45  1  6
 16 46  1  0
 17 47  1  0
 18 48  1  6
 18 49  1  0
 19 50  1  6
 20 51  1  0
 22 52  1  1
 22 53  1  0
 22 54  1  0
 25 55  1  0
 27 56  1  0
 28 57  1  0
 29 58  1  0
 31 59  1  0
M  END
