
     RDKit          3D

 37 38  0  0  0  0  0  0  0  0999 V2000
    8.9870   -4.3970   27.8610 O   0  0  0  0  0  0  0  0  0  0  0  0
    9.0910   -5.0340   26.5970 C   0  0  2  0  0  0  0  0  0  0  0  0
   10.4860   -4.6960   26.0440 C   0  0  1  0  0  0  0  0  0  0  0  0
    7.8820   -4.5480   25.6820 C   0  0  1  0  0  0  0  0  0  0  0  0
    8.1970   -3.1580   25.0130 C   0  0  1  0  0  0  0  0  0  0  0  0
   10.5980   -3.3600   25.2980 C   0  0  2  0  0  0  0  0  0  0  0  0
    9.5030   -3.1740   24.3670 N   0  0  0  0  0  0  0  0  0  0  0  0
    9.6920   -2.2490   23.2360 C   0  0  1  0  0  0  0  0  0  0  0  0
   10.8640   -1.2940   23.3510 C   0  0  0  0  0  0  0  0  0  0  0  0
   10.9640   -0.2080   24.2140 C   0  0  0  0  0  0  0  0  0  0  0  0
   12.1570   -1.3390   22.5210 C   0  0  0  0  0  0  0  0  0  0  0  0
   10.0130    0.1560   25.1270 N   0  0  0  0  0  0  0  0  0  0  0  0
   12.6480   -2.1780   21.5260 C   0  0  0  0  0  0  0  0  0  0  0  0
   13.2030   -0.1020   22.8960 S   0  0  0  0  0  0  0  0  0  0  0  0
   12.1400    0.4870   24.0490 C   0  0  0  0  0  0  0  0  0  0  0  0
    8.6160   -0.2270   25.1840 C   0  0  2  0  0  0  0  0  0  0  0  0
   13.1920   -2.7940   20.7520 N   0  0  0  0  0  0  0  0  0  0  0  0
    7.8840    0.6470   26.1910 C   0  0  1  0  0  0  0  0  0  0  0  0
    8.1870   -4.7300   28.3010 H   0  0  0  0  0  0  0  0  0  0  0  0
    9.1280   -6.1040   26.8580 H   0  0  0  0  0  0  0  0  0  0  0  0
   11.1880   -4.6890   26.8780 H   0  0  0  0  0  0  0  0  0  0  0  0
   10.8280   -5.5130   25.4100 H   0  0  0  0  0  0  0  0  0  0  0  0
    7.6780   -5.2980   24.9070 H   0  0  0  0  0  0  0  0  0  0  0  0
    6.9740   -4.4520   26.2930 H   0  0  0  0  0  0  0  0  0  0  0  0
    7.3950   -2.8830   24.3180 H   0  0  0  0  0  0  0  0  0  0  0  0
    8.1990   -2.3820   25.7830 H   0  0  0  0  0  0  0  0  0  0  0  0
   11.5510   -3.3290   24.7610 H   0  0  0  0  0  0  0  0  0  0  0  0
   10.6030   -2.5550   26.0320 H   0  0  0  0  0  0  0  0  0  0  0  0
    9.7530   -2.8190   22.3000 H   0  0  0  0  0  0  0  0  0  0  0  0
    8.8050   -1.6150   23.1450 H   0  0  0  0  0  0  0  0  0  0  0  0
   10.2870    0.6560   25.9630 H   0  0  0  0  0  0  0  0  0  0  0  0
   12.4520    1.3660   24.5770 H   0  0  0  0  0  0  0  0  0  0  0  0
    8.5480   -1.2750   25.4820 H   0  0  0  0  0  0  0  0  0  0  0  0
    8.1140   -0.1550   24.2120 H   0  0  0  0  0  0  0  0  0  0  0  0
    8.5730    1.1340   26.8880 H   0  0  0  0  0  0  0  0  0  0  0  0
    7.3510    1.4630   25.6930 H   0  0  0  0  0  0  0  0  0  0  0  0
    7.1610    0.0420   26.7450 H   0  0  0  0  0  0  0  0  0  0  0  0
  1  2  1  0
  2  3  1  0
  2  4  1  0
  4  5  1  0
  3  6  1  0
  5  7  1  0
  6  7  1  0
  7  8  1  0
  8  9  1  0
  9 10  1  0
  9 11  2  0
 10 12  1  0
 11 13  1  0
 11 14  1  0
 10 15  2  0
 14 15  1  0
 12 16  1  0
 13 17  3  0
 16 18  1  0
  1 19  1  0
  2 20  1  1
  3 21  1  1
  3 22  1  0
  4 23  1  6
  4 24  1  0
  5 25  1  6
  5 26  1  0
  6 27  1  6
  6 28  1  0
  8 29  1  6
  8 30  1  0
 12 31  1  0
 15 32  1  0
 16 33  1  1
 16 34  1  0
 18 35  1  1
 18 36  1  0
 18 37  1  0
M  END
