
     RDKit          3D

 50 52  0  0  0  0  0  0  0  0999 V2000
    8.6890   -4.3540   27.8720 O   0  0  0  0  0  0  0  0  0  0  0  0
    8.8040   -5.0250   26.6220 C   0  0  2  0  0  0  0  0  0  0  0  0
   10.2230   -4.8660   26.1310 C   0  0  1  0  0  0  0  0  0  0  0  0
    7.7870   -4.4610   25.6350 C   0  0  1  0  0  0  0  0  0  0  0  0
    8.1300   -3.0360   25.1940 C   0  0  1  0  0  0  0  0  0  0  0  0
   10.5030   -3.5890   25.3340 C   0  0  2  0  0  0  0  0  0  0  0  0
    9.4240   -3.0160   24.5150 N   0  0  0  0  0  0  0  0  0  0  0  0
    9.8560   -1.6630   24.1590 C   0  0  1  0  0  0  0  0  0  0  0  0
   11.3990   -1.5960   24.1280 C   0  0  2  0  0  0  0  0  0  0  0  0
   11.9770   -0.3300   24.3880 C   0  0  1  0  0  0  0  0  0  0  0  0
   11.9520   -2.1620   22.8240 C   0  0  1  0  0  0  0  0  0  0  0  0
   12.9430   -0.8430   22.1330 S   0  0  0  0  0  0  0  0  0  0  0  0
   12.0390    0.4510   23.0770 C   0  0  2  0  0  0  0  0  0  0  0  0
   12.7600    1.6370   23.1170 C   0  0  2  0  0  0  0  0  0  0  0  0
   10.5730    0.7560   22.7960 C   0  0  2  0  0  0  0  0  0  0  0  0
   12.2700    2.9130   22.7240 C   0  0  1  0  0  0  0  0  0  0  0  0
   10.1390    2.0140   23.2520 C   0  0  2  0  0  0  0  0  0  0  0  0
   10.7660    3.1500   22.7490 C   0  0  1  0  0  0  0  0  0  0  0  0
   10.2260    4.6980   23.5410 S   0  0  2  0  0  0  0  0  0  0  0  0
    9.7000    4.4640   24.8440 O   0  0  0  0  0  0  0  0  0  0  0  0
    9.3960    5.4330   22.6270 O   0  0  0  0  0  0  0  0  0  0  0  0
   11.6150    5.6330   23.7130 N   0  0  0  0  0  0  0  0  0  0  0  0
    7.9890   -4.8290   28.3620 H   0  0  0  0  0  0  0  0  0  0  0  0
    8.5910   -6.0810   26.8190 H   0  0  0  0  0  0  0  0  0  0  0  0
   10.8870   -4.8540   26.9930 H   0  0  0  0  0  0  0  0  0  0  0  0
   10.4880   -5.7400   25.5330 H   0  0  0  0  0  0  0  0  0  0  0  0
    7.7320   -5.1110   24.7550 H   0  0  0  0  0  0  0  0  0  0  0  0
    6.7960   -4.4440   26.1020 H   0  0  0  0  0  0  0  0  0  0  0  0
    7.3310   -2.6920   24.5260 H   0  0  0  0  0  0  0  0  0  0  0  0
    8.1240   -2.3610   26.0540 H   0  0  0  0  0  0  0  0  0  0  0  0
   11.3490   -3.7870   24.6700 H   0  0  0  0  0  0  0  0  0  0  0  0
   10.8440   -2.8430   26.0500 H   0  0  0  0  0  0  0  0  0  0  0  0
    9.4810   -1.3730   23.1700 H   0  0  0  0  0  0  0  0  0  0  0  0
    9.4660   -0.9130   24.8640 H   0  0  0  0  0  0  0  0  0  0  0  0
   11.7390   -2.2570   24.9330 H   0  0  0  0  0  0  0  0  0  0  0  0
   11.3580    0.1770   25.1160 H   0  0  0  0  0  0  0  0  0  0  0  0
   12.9770   -0.4410   24.8320 H   0  0  0  0  0  0  0  0  0  0  0  0
   12.5740   -3.0440   22.9990 H   0  0  0  0  0  0  0  0  0  0  0  0
   11.1720   -2.4170   22.0980 H   0  0  0  0  0  0  0  0  0  0  0  0
   13.7570    1.5220   22.6870 H   0  0  0  0  0  0  0  0  0  0  0  0
   12.9230    1.7310   24.1460 H   0  0  0  0  0  0  0  0  0  0  0  0
    9.9560    0.0160   23.3180 H   0  0  0  0  0  0  0  0  0  0  0  0
   10.3080    0.6430   21.7440 H   0  0  0  0  0  0  0  0  0  0  0  0
   12.7710    3.6690   23.3360 H   0  0  0  0  0  0  0  0  0  0  0  0
   12.6200    3.1320   21.7160 H   0  0  0  0  0  0  0  0  0  0  0  0
   10.2360    2.0430   24.3460 H   0  0  0  0  0  0  0  0  0  0  0  0
    9.0590    2.0610   23.0690 H   0  0  0  0  0  0  0  0  0  0  0  0
   10.4420    3.2840   21.7110 H   0  0  0  0  0  0  0  0  0  0  0  0
   11.3620    6.6180   23.8190 H   0  0  0  0  0  0  0  0  0  0  0  0
   12.2480    5.4640   22.9260 H   0  0  0  0  0  0  0  0  0  0  0  0
  1  2  1  0
  2  3  1  0
  2  4  1  0
  4  5  1  0
  3  6  1  0
  5  7  1  0
  6  7  1  0
  7  8  1  0
  8  9  1  0
  9 10  1  0
  9 11  1  0
 11 12  1  0
 10 13  1  0
 13 12  1  6
 13 14  1  0
 13 15  1  0
 14 16  1  0
 15 17  1  0
 16 18  1  0
 17 18  1  0
 18 19  1  0
 19 20  2  0
 19 21  2  0
 19 22  1  1
  1 23  1  0
  2 24  1  1
  3 25  1  1
  3 26  1  0
  4 27  1  6
  4 28  1  0
  5 29  1  6
  5 30  1  0
  6 31  1  6
  6 32  1  0
  8 33  1  6
  8 34  1  0
  9 35  1  1
 10 36  1  1
 10 37  1  0
 11 38  1  1
 11 39  1  0
 14 40  1  6
 14 41  1  0
 15 42  1  1
 15 43  1  0
 16 44  1  1
 16 45  1  0
 17 46  1  1
 17 47  1  0
 18 48  1  6
 22 49  1  0
 22 50  1  0
M  END
