
     RDKit          3D

 60 63  0  0  0  0  0  0  0  0999 V2000
    9.1020   -4.5990   27.9720 O   0  0  0  0  0  0  0  0  0  0  0  0
    9.0320   -4.9140   26.6600 C   0  0  2  0  0  0  0  0  0  0  0  0
   10.4010   -4.6560   26.0370 C   0  0  1  0  0  0  0  0  0  0  0  0
    7.8760   -4.1800   26.0880 C   0  0  1  0  0  0  0  0  0  0  0  0
    8.0580   -3.0350   25.2860 C   0  0  1  0  0  0  0  0  0  0  0  0
   10.4880   -3.3690   25.2420 C   0  0  2  0  0  0  0  0  0  0  0  0
    7.0910   -5.1660   25.3950 O   0  0  0  0  0  0  0  0  0  0  0  0
    9.2820   -3.0430   24.4850 N   0  0  0  0  0  0  0  0  0  0  0  0
    7.3390   -5.2760   24.0000 C   0  0  1  0  0  0  0  0  0  0  0  0
    9.4310   -1.7700   23.7830 C   0  0  1  0  0  0  0  0  0  0  0  0
    6.0490   -5.5760   23.3260 C   0  0  1  0  0  0  0  0  0  0  0  0
   10.8510   -1.6110   23.3520 C   0  0  0  0  0  0  0  0  0  0  0  0
    5.4430   -4.6390   22.3110 C   0  0  2  0  0  0  0  0  0  0  0  0
    6.0000   -5.9680   21.8800 C   0  0  1  0  0  0  0  0  0  0  0  0
   11.9880   -1.3940   24.2950 C   0  0  0  0  0  0  0  0  0  0  0  0
   11.3310   -1.6410   22.0670 C   0  0  0  0  0  0  0  0  0  0  0  0
    6.0710   -3.4420   21.8380 N   0  0  0  0  0  0  0  0  0  0  0  0
   13.0250   -1.4140   21.9720 S   0  0  0  0  0  0  0  0  0  0  0  0
   13.1690   -1.2750   23.6580 C   0  0  0  0  0  0  0  0  0  0  0  0
    6.1140   -3.1650   20.4860 C   0  0  0  0  0  0  0  0  0  0  0  0
    6.8460   -2.0290   20.1570 N   0  0  0  0  0  0  0  0  0  0  0  0
    5.5400   -3.8920   19.6580 O   0  0  0  0  0  0  0  0  0  0  0  0
    7.9200   -1.4780   20.9740 C   0  0  1  0  0  0  0  0  0  0  0  0
    6.7940   -1.5790   18.7700 C   0  0  1  0  0  0  0  0  0  0  0  0
    6.0260   -0.3200   18.6540 C   0  0  0  0  0  0  0  0  0  0  0  0
    4.9720    0.1080   19.4730 C   0  0  0  0  0  0  0  0  0  0  0  0
    6.2860    0.5710   17.7010 N   0  0  0  0  0  0  0  0  0  0  0  0
    5.4040    1.6000   17.8860 O   0  0  0  0  0  0  0  0  0  0  0  0
    4.6160    1.3170   18.9520 C   0  0  0  0  0  0  0  0  0  0  0  0
    3.6020    2.3160   19.3010 C   0  0  1  0  0  0  0  0  0  0  0  0
    8.9400   -3.6440   28.0440 H   0  0  0  0  0  0  0  0  0  0  0  0
    8.8220   -5.9910   26.6160 H   0  0  0  0  0  0  0  0  0  0  0  0
   11.1690   -4.6430   26.8130 H   0  0  0  0  0  0  0  0  0  0  0  0
   10.6620   -5.5080   25.4090 H   0  0  0  0  0  0  0  0  0  0  0  0
    7.2750   -3.8530   26.9470 H   0  0  0  0  0  0  0  0  0  0  0  0
    7.2390   -2.7630   24.6220 H   0  0  0  0  0  0  0  0  0  0  0  0
    8.1400   -2.1810   25.9570 H   0  0  0  0  0  0  0  0  0  0  0  0
   11.3710   -3.4060   24.5980 H   0  0  0  0  0  0  0  0  0  0  0  0
   10.6660   -2.5380   25.9260 H   0  0  0  0  0  0  0  0  0  0  0  0
    7.7980   -4.3800   23.5720 H   0  0  0  0  0  0  0  0  0  0  0  0
    8.0420   -6.1020   23.8660 H   0  0  0  0  0  0  0  0  0  0  0  0
    8.7470   -1.6970   22.9370 H   0  0  0  0  0  0  0  0  0  0  0  0
    9.2040   -0.9350   24.4560 H   0  0  0  0  0  0  0  0  0  0  0  0
    5.3520   -6.0660   23.9990 H   0  0  0  0  0  0  0  0  0  0  0  0
    4.3570   -4.5530   22.3640 H   0  0  0  0  0  0  0  0  0  0  0  0
    6.9300   -5.9850   21.3250 H   0  0  0  0  0  0  0  0  0  0  0  0
    5.2950   -6.7310   21.5780 H   0  0  0  0  0  0  0  0  0  0  0  0
   11.8740   -1.3460   25.3570 H   0  0  0  0  0  0  0  0  0  0  0  0
   10.7620   -1.7840   21.1660 H   0  0  0  0  0  0  0  0  0  0  0  0
    5.9600   -2.6130   22.4070 H   0  0  0  0  0  0  0  0  0  0  0  0
   14.1130   -1.1190   24.1060 H   0  0  0  0  0  0  0  0  0  0  0  0
    8.7070   -2.2220   21.1570 H   0  0  0  0  0  0  0  0  0  0  0  0
    8.3540   -0.6210   20.4640 H   0  0  0  0  0  0  0  0  0  0  0  0
    7.5120   -1.1630   21.9400 H   0  0  0  0  0  0  0  0  0  0  0  0
    7.8230   -1.4220   18.4330 H   0  0  0  0  0  0  0  0  0  0  0  0
    6.3430   -2.3300   18.1120 H   0  0  0  0  0  0  0  0  0  0  0  0
    4.5360   -0.3930   20.3230 H   0  0  0  0  0  0  0  0  0  0  0  0
    3.9640    2.9670   20.1010 H   0  0  0  0  0  0  0  0  0  0  0  0
    3.3620    2.9410   18.4430 H   0  0  0  0  0  0  0  0  0  0  0  0
    2.6800    1.8320   19.6390 H   0  0  0  0  0  0  0  0  0  0  0  0
  1  2  1  0
  2  3  1  0
  2  4  1  0
  4  5  1  0
  3  6  1  0
  4  7  1  0
  5  8  1  0
  6  8  1  0
  7  9  1  0
  8 10  1  0
  9 11  1  0
 10 12  1  0
 11 13  1  0
 11 14  1  0
 13 14  1  0
 12 15  1  0
 12 16  2  0
 13 17  1  0
 16 18  1  0
 15 19  2  0
 18 19  1  0
 17 20  1  0
 20 21  1  0
 20 22  2  0
 21 23  1  0
 21 24  1  0
 24 25  1  0
 25 26  1  0
 25 27  2  0
 27 28  1  0
 26 29  2  0
 28 29  1  0
 29 30  1  0
  1 31  1  0
  2 32  1  1
  3 33  1  1
  3 34  1  0
  4 35  1  1
  5 36  1  6
  5 37  1  0
  6 38  1  6
  6 39  1  0
  9 40  1  6
  9 41  1  0
 10 42  1  6
 10 43  1  0
 11 44  1  1
 13 45  1  1
 14 46  1  6
 14 47  1  0
 15 48  1  0
 16 49  1  0
 17 50  1  0
 19 51  1  0
 23 52  1  1
 23 53  1  0
 23 54  1  0
 24 55  1  6
 24 56  1  0
 26 57  1  0
 30 58  1  1
 30 59  1  0
 30 60  1  0
M  END
