
     RDKit          3D

 60 63  0  0  0  0  0  0  0  0999 V2000
    8.2050   -1.5180   21.3300 C   0  0  1  0  0  0  0  0  0  0  0  0
    7.0140   -1.7930   20.6110 N   0  0  0  0  0  0  0  0  0  0  0  0
    6.9800   -1.3630   19.2000 C   0  0  1  0  0  0  0  0  0  0  0  0
    7.9720   -1.0910   22.7030 O   0  0  0  0  0  0  0  0  0  0  0  0
    6.2650   -2.9520   20.8500 C   0  0  0  0  0  0  0  0  0  0  0  0
    9.0110   -1.4030   23.6830 C   0  0  1  0  0  0  0  0  0  0  0  0
    5.5260   -3.4600   19.9990 O   0  0  0  0  0  0  0  0  0  0  0  0
    6.4240   -3.5000   22.1030 N   0  0  0  0  0  0  0  0  0  0  0  0
    6.1410   -0.1850   18.8920 C   0  0  0  0  0  0  0  0  0  0  0  0
   10.3410   -0.7910   23.3100 C   0  0  0  0  0  0  0  0  0  0  0  0
    5.0810    0.3190   19.6400 C   0  0  0  0  0  0  0  0  0  0  0  0
    6.3080    0.5710   17.8020 N   0  0  0  0  0  0  0  0  0  0  0  0
    5.7650   -4.7060   22.5050 C   0  0  2  0  0  0  0  0  0  0  0  0
   10.6330    0.5950   23.3430 C   0  0  0  0  0  0  0  0  0  0  0  0
   11.3790   -1.6250   22.8770 C   0  0  0  0  0  0  0  0  0  0  0  0
    5.3540    1.5670   17.8600 O   0  0  0  0  0  0  0  0  0  0  0  0
    4.6060    1.4050   18.9860 C   0  0  0  0  0  0  0  0  0  0  0  0
    6.3290   -5.4840   23.5090 C   0  0  1  0  0  0  0  0  0  0  0  0
    6.1020   -5.8120   21.9310 C   0  0  2  0  0  0  0  0  0  0  0  0
    9.8480    1.6530   23.7210 N   0  0  0  0  0  0  0  0  0  0  0  0
   11.8610    1.1410   22.9540 C   0  0  0  0  0  0  0  0  0  0  0  0
   12.6010   -1.1100   22.5100 C   0  0  0  0  0  0  0  0  0  0  0  0
    3.5010    2.3820   19.2510 C   0  0  1  0  0  0  0  0  0  0  0  0
   13.5360   -1.9520   22.1050 F   0  0  0  0  0  0  0  0  0  0  0  0
   11.7460    2.5750   23.0750 C   0  0  0  0  0  0  0  0  0  0  0  0
   10.4920    2.8430   23.5670 C   0  0  0  0  0  0  0  0  0  0  0  0
   12.8710    0.2510   22.5420 C   0  0  0  0  0  0  0  0  0  0  0  0
   12.6570    3.5990   22.7630 C   0  0  2  0  0  0  0  0  0  0  0  0
   12.3520    4.9760   23.3650 C   0  0  2  0  0  0  0  0  0  0  0  0
   11.2360    5.6290   22.6870 N   0  0  0  0  0  0  0  0  0  0  0  0
   10.2100    6.1710   23.4100 C   0  0  0  0  0  0  0  0  0  0  0  0
    9.0250    6.6460   22.5430 C   0  0  1  0  0  0  0  0  0  0  0  0
   10.2200    6.2760   24.6330 O   0  0  0  0  0  0  0  0  0  0  0  0
    8.8840   -2.3790   21.3200 H   0  0  0  0  0  0  0  0  0  0  0  0
    8.7160   -0.6970   20.8290 H   0  0  0  0  0  0  0  0  0  0  0  0
    7.9780   -1.1780   18.8130 H   0  0  0  0  0  0  0  0  0  0  0  0
    6.5740   -2.2000   18.6240 H   0  0  0  0  0  0  0  0  0  0  0  0
    8.7020   -0.9730   24.6440 H   0  0  0  0  0  0  0  0  0  0  0  0
    9.0870   -2.4870   23.8380 H   0  0  0  0  0  0  0  0  0  0  0  0
    7.3260   -3.2960   22.5230 H   0  0  0  0  0  0  0  0  0  0  0  0
    4.8270   -0.2100   20.5690 H   0  0  0  0  0  0  0  0  0  0  0  0
    4.6900   -4.5470   22.5940 H   0  0  0  0  0  0  0  0  0  0  0  0
   11.2310   -2.7020   22.8200 H   0  0  0  0  0  0  0  0  0  0  0  0
    7.3290   -5.2380   23.8530 H   0  0  0  0  0  0  0  0  0  0  0  0
    5.6900   -5.9540   24.2430 H   0  0  0  0  0  0  0  0  0  0  0  0
    6.9690   -5.8080   21.2880 H   0  0  0  0  0  0  0  0  0  0  0  0
    5.3280   -6.5220   21.6550 H   0  0  0  0  0  0  0  0  0  0  0  0
    3.7670    3.0740   20.0590 H   0  0  0  0  0  0  0  0  0  0  0  0
    3.2900    2.9870   18.3630 H   0  0  0  0  0  0  0  0  0  0  0  0
    2.5900    1.8510   19.5450 H   0  0  0  0  0  0  0  0  0  0  0  0
    9.9980    3.7720   23.8120 H   0  0  0  0  0  0  0  0  0  0  0  0
   13.8450    0.6000   22.2440 H   0  0  0  0  0  0  0  0  0  0  0  0
   12.6180    3.7320   21.6760 H   0  0  0  0  0  0  0  0  0  0  0  0
   13.6710    3.2920   22.9680 H   0  0  0  0  0  0  0  0  0  0  0  0
   13.2110    5.6300   23.1810 H   0  0  0  0  0  0  0  0  0  0  0  0
   12.1500    5.0580   24.4270 H   0  0  0  0  0  0  0  0  0  0  0  0
   11.0130    5.3760   21.7160 H   0  0  0  0  0  0  0  0  0  0  0  0
    8.3880    7.3060   23.1350 H   0  0  0  0  0  0  0  0  0  0  0  0
    9.3690    7.1850   21.6610 H   0  0  0  0  0  0  0  0  0  0  0  0
    8.4540    5.7760   22.2100 H   0  0  0  0  0  0  0  0  0  0  0  0
  1  2  1  0
  2  3  1  0
  1  4  1  0
  2  5  1  0
  4  6  1  0
  5  7  2  0
  5  8  1  0
  3  9  1  0
  6 10  1  0
  9 11  1  0
  9 12  2  0
  8 13  1  0
 10 14  1  0
 10 15  2  0
 12 16  1  0
 11 17  2  0
 16 17  1  0
 13 18  1  0
 13 19  1  0
 18 19  1  0
 14 20  4  0
 14 21  1  0
 15 22  1  0
 17 23  1  0
 22 24  1  0
 21 25  4  0
 20 26  4  0
 25 26  4  0
 21 27  1  0
 22 27  2  0
 25 28  1  0
 28 29  1  0
 29 30  1  0
 30 31  1  0
 31 32  1  0
 31 33  2  0
  1 34  1  1
  1 35  1  0
  3 36  1  6
  3 37  1  0
  6 38  1  1
  6 39  1  0
  8 40  1  0
 11 41  1  0
 13 42  1  1
 15 43  1  0
 18 44  1  1
 18 45  1  0
 19 46  1  6
 19 47  1  0
 23 48  1  1
 23 49  1  0
 23 50  1  0
 26 51  1  0
 27 52  1  0
 28 53  1  6
 28 54  1  0
 29 55  1  1
 29 56  1  0
 30 57  1  0
 32 58  1  1
 32 59  1  0
 32 60  1  0
M  END
