
     RDKit          3D

 53 56  0  0  0  0  0  0  0  0999 V2000
    7.8520   -1.3500   20.8860 C   0  0  1  0  0  0  0  0  0  0  0  0
    6.7920   -2.0800   20.2010 N   0  0  0  0  0  0  0  0  0  0  0  0
    6.6260   -1.7090   18.7720 C   0  0  1  0  0  0  0  0  0  0  0  0
    6.3090   -3.3120   20.6430 C   0  0  0  0  0  0  0  0  0  0  0  0
    5.5040   -4.2060   19.8510 O   0  0  0  0  0  0  0  0  0  0  0  0
    6.7120   -3.6210   21.9450 N   0  0  0  0  0  0  0  0  0  0  0  0
    5.9320   -0.4100   18.6610 C   0  0  0  0  0  0  0  0  0  0  0  0
    4.8830    0.0710   19.4560 C   0  0  0  0  0  0  0  0  0  0  0  0
    6.2730    0.4760   17.7260 N   0  0  0  0  0  0  0  0  0  0  0  0
    6.1130   -4.6000   22.8250 C   0  0  2  0  0  0  0  0  0  0  0  0
    5.4460    1.5560   17.9010 O   0  0  0  0  0  0  0  0  0  0  0  0
    4.6140    1.3050   18.9430 C   0  0  0  0  0  0  0  0  0  0  0  0
    6.8950   -5.3150   23.6390 C   0  0  2  0  0  0  0  0  0  0  0  0
    5.9700   -5.9030   22.3720 C   0  0  2  0  0  0  0  0  0  0  0  0
    3.6470    2.3520   19.2830 C   0  0  1  0  0  0  0  0  0  0  0  0
    6.3720   -5.6150   24.9690 O   0  0  0  0  0  0  0  0  0  0  0  0
    8.3810   -5.5770   23.4310 C   0  0  2  0  0  0  0  0  0  0  0  0
    9.2360   -5.3730   24.5430 C   0  0  1  0  0  0  0  0  0  0  0  0
    7.1060   -5.2610   26.1660 C   0  0  1  0  0  0  0  0  0  0  0  0
    9.0590   -4.0600   25.1490 N   0  0  0  0  0  0  0  0  0  0  0  0
    7.9940   -4.0250   26.1740 C   0  0  2  0  0  0  0  0  0  0  0  0
    9.1710   -2.9010   24.3760 C   0  0  0  0  0  0  0  0  0  0  0  0
    8.4630   -1.7690   24.7440 C   0  0  0  0  0  0  0  0  0  0  0  0
    9.9800   -2.7900   23.2170 C   0  0  0  0  0  0  0  0  0  0  0  0
    8.5830   -0.6190   23.9690 C   0  0  0  0  0  0  0  0  0  0  0  0
   10.1210   -1.6640   22.4470 N   0  0  0  0  0  0  0  0  0  0  0  0
    9.3990   -0.5950   22.8610 C   0  0  0  0  0  0  0  0  0  0  0  0
    9.4510    0.6430   22.1510 C   0  0  0  0  0  0  0  0  0  0  0  0
    9.3910    1.6910   21.6650 N   0  0  0  0  0  0  0  0  0  0  0  0
    8.0920   -0.4080   20.3980 H   0  0  0  0  0  0  0  0  0  0  0  0
    7.5360   -1.1450   21.9100 H   0  0  0  0  0  0  0  0  0  0  0  0
    8.7280   -2.0000   20.9080 H   0  0  0  0  0  0  0  0  0  0  0  0
    7.6140   -1.6560   18.3060 H   0  0  0  0  0  0  0  0  0  0  0  0
    6.0660   -2.4910   18.2450 H   0  0  0  0  0  0  0  0  0  0  0  0
    7.6910   -3.4420   22.1310 H   0  0  0  0  0  0  0  0  0  0  0  0
    4.3920   -0.4260   20.2970 H   0  0  0  0  0  0  0  0  0  0  0  0
    5.2170   -4.1900   23.2880 H   0  0  0  0  0  0  0  0  0  0  0  0
    6.4710   -6.2080   21.4600 H   0  0  0  0  0  0  0  0  0  0  0  0
    5.0400   -6.4190   22.5760 H   0  0  0  0  0  0  0  0  0  0  0  0
    2.7020    1.9200   19.6280 H   0  0  0  0  0  0  0  0  0  0  0  0
    4.0380    2.9920   20.0880 H   0  0  0  0  0  0  0  0  0  0  0  0
    3.4410    2.9800   18.4110 H   0  0  0  0  0  0  0  0  0  0  0  0
    8.7320   -4.9240   22.6230 H   0  0  0  0  0  0  0  0  0  0  0  0
    8.4920   -6.6050   23.0720 H   0  0  0  0  0  0  0  0  0  0  0  0
    9.1140   -6.1650   25.2750 H   0  0  0  0  0  0  0  0  0  0  0  0
   10.2830   -5.4710   24.2590 H   0  0  0  0  0  0  0  0  0  0  0  0
    6.3600   -5.1860   26.9630 H   0  0  0  0  0  0  0  0  0  0  0  0
    7.7220   -6.1350   26.4170 H   0  0  0  0  0  0  0  0  0  0  0  0
    8.4360   -3.8900   27.1640 H   0  0  0  0  0  0  0  0  0  0  0  0
    7.3230   -3.1800   25.9930 H   0  0  0  0  0  0  0  0  0  0  0  0
    7.8210   -1.7720   25.6200 H   0  0  0  0  0  0  0  0  0  0  0  0
   10.5680   -3.6240   22.8500 H   0  0  0  0  0  0  0  0  0  0  0  0
    8.0240    0.2720   24.2490 H   0  0  0  0  0  0  0  0  0  0  0  0
  1  2  1  0
  2  3  1  0
  2  4  1  0
  4  5  2  0
  4  6  1  0
  3  7  1  0
  7  8  1  0
  7  9  2  0
  6 10  1  0
  9 11  1  0
  8 12  2  0
 11 12  1  0
 10 13  1  0
 10 14  1  0
 13 14  1  0
 12 15  1  0
 13 16  1  1
 13 17  1  0
 17 18  1  0
 16 19  1  0
 18 20  1  0
 19 21  1  0
 20 21  1  0
 20 22  1  0
 22 23  2  0
 22 24  1  0
 23 25  1  0
 24 26  2  0
 25 27  2  0
 26 27  1  0
 27 28  1  0
 28 29  3  0
  1 30  1  6
  1 31  1  0
  1 32  1  0
  3 33  1  6
  3 34  1  0
  6 35  1  0
  8 36  1  0
 10 37  1  1
 14 38  1  6
 14 39  1  0
 15 40  1  1
 15 41  1  0
 15 42  1  0
 17 43  1  6
 17 44  1  0
 18 45  1  1
 18 46  1  0
 19 47  1  1
 19 48  1  0
 21 49  1  1
 21 50  1  0
 23 51  1  0
 24 52  1  0
 25 53  1  0
M  END
