
     RDKit          3D

 44 47  0  0  0  0  0  0  0  0999 V2000
   22.8820   17.9820    3.2070 O   0  0  0  0  0  0  0  0  0  0  0  0
   22.2300   18.3200    4.3670 C   0  0  0  0  0  0  0  0  0  0  0  0
   21.5760   19.5490    4.4060 C   0  0  0  0  0  0  0  0  0  0  0  0
   22.2190   17.4640    5.4890 C   0  0  0  0  0  0  0  0  0  0  0  0
   22.9210   16.1010    5.5210 C   0  0  2  0  0  0  0  0  0  0  0  0
   21.5750   20.5030    3.2790 C   0  0  2  0  0  0  0  0  0  0  0  0
   21.5210   17.8910    6.6400 C   0  0  0  0  0  0  0  0  0  0  0  0
   20.8910   19.9360    5.5570 C   0  0  0  0  0  0  0  0  0  0  0  0
   23.1210   15.6460    4.1450 N   0  0  0  0  0  0  0  0  0  0  0  0
   22.0460   21.7400    3.8030 O   0  0  0  0  0  0  0  0  0  0  0  0
   20.8590   19.1150    6.6700 C   0  0  0  0  0  0  0  0  0  0  0  0
   22.2560   14.9510    6.3090 C   0  0  0  0  0  0  0  0  0  0  0  0
   23.8300   14.4970    3.9850 C   0  0  0  0  0  0  0  0  0  0  0  0
   22.2540   13.6550    5.7610 C   0  0  0  0  0  0  0  0  0  0  0  0
   21.6490   15.1030    7.5680 C   0  0  0  0  0  0  0  0  0  0  0  0
   24.9190   14.2440    4.7850 N   0  0  0  0  0  0  0  0  0  0  0  0
   23.6410   13.5100    3.1370 N   0  0  0  0  0  0  0  0  0  0  0  0
   21.6900   12.5700    6.4210 C   0  0  0  0  0  0  0  0  0  0  0  0
   21.0900   14.0040    8.2260 C   0  0  0  0  0  0  0  0  0  0  0  0
   24.6370   12.6000    3.4000 C   0  0  0  0  0  0  0  0  0  0  0  0
   25.4570   13.0370    4.4320 C   0  0  0  0  0  0  0  0  0  0  0  0
   21.1080   12.7460    7.6580 C   0  0  0  0  0  0  0  0  0  0  0  0
   26.5530   12.3140    4.9080 C   0  0  0  0  0  0  0  0  0  0  0  0
   24.9080   11.3650    2.7920 C   0  0  0  0  0  0  0  0  0  0  0  0
   26.8100   11.0860    4.2870 C   0  0  0  0  0  0  0  0  0  0  0  0
   26.0020   10.6160    3.2460 C   0  0  0  0  0  0  0  0  0  0  0  0
   22.5190   17.1370    2.8900 H   0  0  0  0  0  0  0  0  0  0  0  0
   23.8970   16.2160    6.0150 H   0  0  0  0  0  0  0  0  0  0  0  0
   20.5680   20.6350    2.8750 H   0  0  0  0  0  0  0  0  0  0  0  0
   22.2310   20.2060    2.4570 H   0  0  0  0  0  0  0  0  0  0  0  0
   21.4870   17.2620    7.5260 H   0  0  0  0  0  0  0  0  0  0  0  0
   20.3770   20.8970    5.5830 H   0  0  0  0  0  0  0  0  0  0  0  0
   23.3420   16.4210    3.5240 H   0  0  0  0  0  0  0  0  0  0  0  0
   22.2590   21.5760    4.7400 H   0  0  0  0  0  0  0  0  0  0  0  0
   20.3240   19.4240    7.5640 H   0  0  0  0  0  0  0  0  0  0  0  0
   22.7030   13.4720    4.7930 H   0  0  0  0  0  0  0  0  0  0  0  0
   21.6060   16.0690    8.0620 H   0  0  0  0  0  0  0  0  0  0  0  0
   21.7080   11.5810    5.9660 H   0  0  0  0  0  0  0  0  0  0  0  0
   20.6380   14.1310    9.1990 H   0  0  0  0  0  0  0  0  0  0  0  0
   20.6680   11.9060    8.1840 H   0  0  0  0  0  0  0  0  0  0  0  0
   27.1750   12.6820    5.7140 H   0  0  0  0  0  0  0  0  0  0  0  0
   24.2780   11.0060    1.9850 H   0  0  0  0  0  0  0  0  0  0  0  0
   27.6540   10.4850    4.6210 H   0  0  0  0  0  0  0  0  0  0  0  0
   26.2250    9.6550    2.7800 H   0  0  0  0  0  0  0  0  0  0  0  0
  1  2  1  0
  2  3  2  0
  2  4  1  0
  4  5  1  0
  3  6  1  0
  4  7  2  0
  3  8  1  0
  5  9  1  0
  6 10  1  0
  7 11  1  0
  8 11  2  0
  5 12  1  0
  9 13  1  0
 12 14  2  0
 12 15  1  0
 13 16  4  0
 13 17  4  0
 14 18  1  0
 15 19  2  0
 17 20  4  0
 16 21  4  0
 20 21  1  0
 18 22  2  0
 19 22  1  0
 21 23  1  0
 20 24  1  0
 23 25  2  0
 24 26  2  0
 25 26  1  0
  1 27  1  0
  5 28  1  1
  6 29  1  6
  6 30  1  0
  7 31  1  0
  8 32  1  0
  9 33  1  0
 10 34  1  0
 11 35  1  0
 14 36  1  0
 15 37  1  0
 18 38  1  0
 19 39  1  0
 22 40  1  0
 23 41  1  0
 24 42  1  0
 25 43  1  0
 26 44  1  0
M  END
