
     RDKit          3D

 52 54  0  0  0  0  0  0  0  0999 V2000
    7.2800   -1.2120   21.5650 C   0  0  1  0  0  0  0  0  0  0  0  0
    6.4560   -1.7830   20.6210 N   0  0  0  0  0  0  0  0  0  0  0  0
    6.5130   -1.4270   19.2090 C   0  0  1  0  0  0  0  0  0  0  0  0
    8.1590   -2.2070   22.0760 O   0  0  0  0  0  0  0  0  0  0  0  0
    5.7810   -2.9730   20.9740 C   0  0  0  0  0  0  0  0  0  0  0  0
    9.4670   -1.9850   21.5720 C   0  0  1  0  0  0  0  0  0  0  0  0
    4.9900   -3.5250   20.2260 O   0  0  0  0  0  0  0  0  0  0  0  0
    6.0820   -3.4870   22.2170 N   0  0  0  0  0  0  0  0  0  0  0  0
    5.7900   -0.1810   18.9220 C   0  0  0  0  0  0  0  0  0  0  0  0
   10.3410   -1.4710   22.6430 C   0  0  0  0  0  0  0  0  0  0  0  0
    4.6510    0.5060   19.6410 C   0  0  0  0  0  0  0  0  0  0  0  0
    6.1130    0.5690   17.8500 N   0  0  0  0  0  0  0  0  0  0  0  0
    5.5980   -4.7710   22.6550 C   0  0  2  0  0  0  0  0  0  0  0  0
   11.8510   -1.2810   22.8420 C   0  0  0  0  0  0  0  0  0  0  0  0
    9.8920   -0.9280   23.9670 C   0  0  0  0  0  0  0  0  0  0  0  0
    5.2780    1.6610   17.8390 O   0  0  0  0  0  0  0  0  0  0  0  0
    4.4220    1.6170   18.8960 C   0  0  0  0  0  0  0  0  0  0  0  0
    6.3220   -5.4220   23.5640 C   0  0  1  0  0  0  0  0  0  0  0  0
    6.0230   -5.8480   22.0160 C   0  0  2  0  0  0  0  0  0  0  0  0
   12.7190   -1.6700   21.7900 C   0  0  0  0  0  0  0  0  0  0  0  0
   10.5880   -0.4250   25.0090 C   0  0  0  0  0  0  0  0  0  0  0  0
   12.4960   -0.7590   23.9410 C   0  0  0  0  0  0  0  0  0  0  0  0
    3.4690    2.7190   19.0170 C   0  0  1  0  0  0  0  0  0  0  0  0
    9.8840    0.0180   26.1150 N   0  0  0  0  0  0  0  0  0  0  0  0
   13.4040   -1.9430   20.9150 N   0  0  0  0  0  0  0  0  0  0  0  0
   11.9010   -0.3270   25.0280 N   0  0  0  0  0  0  0  0  0  0  0  0
    8.4330   -0.2020   26.1940 C   0  0  2  0  0  0  0  0  0  0  0  0
    8.0140   -0.3330   27.5200 C   0  0  1  0  0  0  0  0  0  0  0  0
    7.8610   -0.4040   21.1110 H   0  0  0  0  0  0  0  0  0  0  0  0
    6.6770   -0.7840   22.3720 H   0  0  0  0  0  0  0  0  0  0  0  0
    7.5480   -1.3030   18.8830 H   0  0  0  0  0  0  0  0  0  0  0  0
    6.0320   -2.2410   18.6510 H   0  0  0  0  0  0  0  0  0  0  0  0
    9.9060   -2.8950   21.1650 H   0  0  0  0  0  0  0  0  0  0  0  0
    9.3580   -1.2260   20.8040 H   0  0  0  0  0  0  0  0  0  0  0  0
    6.9340   -3.1620   22.6530 H   0  0  0  0  0  0  0  0  0  0  0  0
    4.1330    0.1950   20.5370 H   0  0  0  0  0  0  0  0  0  0  0  0
    4.5340   -4.6980   22.8630 H   0  0  0  0  0  0  0  0  0  0  0  0
    8.8170   -0.9400   24.1070 H   0  0  0  0  0  0  0  0  0  0  0  0
    7.3140   -5.0630   23.8140 H   0  0  0  0  0  0  0  0  0  0  0  0
    5.8160   -5.9560   24.3570 H   0  0  0  0  0  0  0  0  0  0  0  0
    6.7360   -5.5870   21.2280 H   0  0  0  0  0  0  0  0  0  0  0  0
    5.3210   -6.6430   21.7910 H   0  0  0  0  0  0  0  0  0  0  0  0
   13.5770   -0.6710   23.9710 H   0  0  0  0  0  0  0  0  0  0  0  0
    3.7330    3.3700   19.8580 H   0  0  0  0  0  0  0  0  0  0  0  0
    3.4750    3.3260   18.1070 H   0  0  0  0  0  0  0  0  0  0  0  0
    2.4550    2.3440   19.1830 H   0  0  0  0  0  0  0  0  0  0  0  0
   10.4050   -0.2610   26.9500 H   0  0  0  0  0  0  0  0  0  0  0  0
    8.1930   -1.1260   25.6580 H   0  0  0  0  0  0  0  0  0  0  0  0
    7.8670    0.5940   25.6990 H   0  0  0  0  0  0  0  0  0  0  0  0
    7.4210   -1.2420   27.6730 H   0  0  0  0  0  0  0  0  0  0  0  0
    8.8870   -0.3770   28.1860 H   0  0  0  0  0  0  0  0  0  0  0  0
    7.4020    0.5230   27.8250 H   0  0  0  0  0  0  0  0  0  0  0  0
  1  2  1  0
  2  3  1  0
  1  4  1  0
  2  5  1  0
  4  6  1  0
  5  7  2  0
  5  8  1  0
  3  9  1  0
  6 10  1  0
  9 11  1  0
  9 12  2  0
  8 13  1  0
 10 14  2  0
 10 15  1  0
 12 16  1  0
 11 17  2  0
 16 17  1  0
 13 18  1  0
 13 19  1  0
 18 19  1  0
 14 20  1  0
 15 21  2  0
 14 22  1  0
 17 23  1  0
 21 24  1  0
 20 25  3  0
 21 26  1  0
 22 26  2  0
 24 27  1  0
 27 28  1  0
  1 29  1  6
  1 30  1  0
  3 31  1  6
  3 32  1  0
  6 33  1  6
  6 34  1  0
  8 35  1  0
 11 36  1  0
 13 37  1  1
 15 38  1  0
 18 39  1  1
 18 40  1  0
 19 41  1  6
 19 42  1  0
 22 43  1  0
 23 44  1  1
 23 45  1  0
 23 46  1  0
 24 47  1  0
 27 48  1  6
 27 49  1  0
 28 50  1  6
 28 51  1  0
 28 52  1  0
M  END
