
     RDKit          3D

 55 57  0  0  0  0  0  0  0  0999 V2000
    7.9040   -1.2690   21.3340 C   0  0  1  0  0  0  0  0  0  0  0  0
    6.9570   -1.8310   20.3650 N   0  0  0  0  0  0  0  0  0  0  0  0
    6.9570   -1.3730   18.9470 C   0  0  1  0  0  0  0  0  0  0  0  0
    8.6060   -2.3140   22.0010 O   0  0  0  0  0  0  0  0  0  0  0  0
    6.2150   -2.9540   20.7420 C   0  0  0  0  0  0  0  0  0  0  0  0
    9.0730   -2.0130   23.3410 C   0  0  1  0  0  0  0  0  0  0  0  0
    5.4300   -3.4810   19.9460 O   0  0  0  0  0  0  0  0  0  0  0  0
    6.3950   -3.4450   22.0120 N   0  0  0  0  0  0  0  0  0  0  0  0
    6.0990   -0.1940   18.7740 C   0  0  0  0  0  0  0  0  0  0  0  0
    9.1950   -3.3100   24.1580 C   0  0  2  0  0  0  0  0  0  0  0  0
   10.4420   -1.2840   23.2590 C   0  0  0  0  0  0  0  0  0  0  0  0
    5.0440    0.2490   19.5770 C   0  0  0  0  0  0  0  0  0  0  0  0
    6.2900    0.6770   17.6620 N   0  0  0  0  0  0  0  0  0  0  0  0
    5.6550   -4.5900   22.4770 C   0  0  2  0  0  0  0  0  0  0  0  0
    8.0720   -3.4860   25.1040 N   0  0  0  0  0  0  0  0  0  0  0  0
   11.5050   -1.9100   22.3310 C   0  0  0  0  0  0  0  0  0  0  0  0
   10.7410   -0.1140   23.9780 C   0  0  0  0  0  0  0  0  0  0  0  0
    5.3350    1.6400   17.8260 O   0  0  0  0  0  0  0  0  0  0  0  0
    4.6050    1.3860   18.9510 C   0  0  0  0  0  0  0  0  0  0  0  0
    6.2440   -5.4360   23.3710 C   0  0  1  0  0  0  0  0  0  0  0  0
    5.9420   -5.9020   21.8650 C   0  0  2  0  0  0  0  0  0  0  0  0
    8.2870   -4.5730   26.3730 S   0  0  1  0  0  0  0  0  0  0  0  0
   12.7550   -1.3180   22.2050 C   0  0  0  0  0  0  0  0  0  0  0  0
   11.9850    0.5010   23.8660 C   0  0  0  0  0  0  0  0  0  0  0  0
    3.5360    2.3400   19.2590 C   0  0  1  0  0  0  0  0  0  0  0  0
    6.6410   -5.1960   26.6540 C   0  0  1  0  0  0  0  0  0  0  0  0
    9.1070   -5.6500   25.8830 O   0  0  0  0  0  0  0  0  0  0  0  0
    8.6720   -3.8250   27.5350 O   0  0  0  0  0  0  0  0  0  0  0  0
   13.0500   -0.0660   22.9780 C   0  0  0  0  0  0  0  0  0  0  0  0
    8.6330   -0.6480   20.8090 H   0  0  0  0  0  0  0  0  0  0  0  0
    7.3630   -0.6210   22.0300 H   0  0  0  0  0  0  0  0  0  0  0  0
    7.9690   -1.1400   18.6130 H   0  0  0  0  0  0  0  0  0  0  0  0
    6.5950   -2.1590   18.2750 H   0  0  0  0  0  0  0  0  0  0  0  0
    8.3520   -1.3630   23.8530 H   0  0  0  0  0  0  0  0  0  0  0  0
    7.3490   -3.3860   22.3580 H   0  0  0  0  0  0  0  0  0  0  0  0
   10.1340   -3.2810   24.7260 H   0  0  0  0  0  0  0  0  0  0  0  0
    9.2150   -4.1530   23.4670 H   0  0  0  0  0  0  0  0  0  0  0  0
    4.6550   -0.1920   20.4820 H   0  0  0  0  0  0  0  0  0  0  0  0
    4.6210   -4.3120   22.6670 H   0  0  0  0  0  0  0  0  0  0  0  0
    7.1630   -3.6680   24.6390 H   0  0  0  0  0  0  0  0  0  0  0  0
   11.2840   -2.8130   21.7720 H   0  0  0  0  0  0  0  0  0  0  0  0
   10.0000    0.3290   24.6330 H   0  0  0  0  0  0  0  0  0  0  0  0
    7.2770   -5.2630   23.6430 H   0  0  0  0  0  0  0  0  0  0  0  0
    5.6490   -5.8860   24.1630 H   0  0  0  0  0  0  0  0  0  0  0  0
    6.7690   -6.0430   21.1690 H   0  0  0  0  0  0  0  0  0  0  0  0
    5.1320   -6.6070   21.6530 H   0  0  0  0  0  0  0  0  0  0  0  0
   13.5060   -1.7550   21.5530 H   0  0  0  0  0  0  0  0  0  0  0  0
   12.1850    1.4010   24.4250 H   0  0  0  0  0  0  0  0  0  0  0  0
    2.6250    1.8130   19.5550 H   0  0  0  0  0  0  0  0  0  0  0  0
    3.8380    2.9990   20.0750 H   0  0  0  0  0  0  0  0  0  0  0  0
    3.3050    2.9650   18.3880 H   0  0  0  0  0  0  0  0  0  0  0  0
    6.1450   -4.6170   27.4410 H   0  0  0  0  0  0  0  0  0  0  0  0
    6.0530   -5.0770   25.7360 H   0  0  0  0  0  0  0  0  0  0  0  0
    6.6830   -6.2670   26.8910 H   0  0  0  0  0  0  0  0  0  0  0  0
   14.0100    0.4220   22.8940 H   0  0  0  0  0  0  0  0  0  0  0  0
  1  2  1  0
  2  3  1  0
  1  4  1  0
  2  5  1  0
  4  6  1  0
  5  7  2  0
  5  8  1  0
  3  9  1  0
  6 10  1  0
  6 11  1  0
  9 12  1  0
  9 13  2  0
  8 14  1  0
 10 15  1  0
 11 16  2  0
 11 17  1  0
 13 18  1  0
 12 19  2  0
 18 19  1  0
 14 20  1  0
 14 21  1  0
 20 21  1  0
 22 15  1  6
 16 23  1  0
 17 24  2  0
 19 25  1  0
 22 26  1  0
 22 27  2  0
 22 28  2  0
 23 29  2  0
 24 29  1  0
  1 30  1  6
  1 31  1  0
  3 32  1  6
  3 33  1  0
  6 34  1  1
  8 35  1  0
 10 36  1  1
 10 37  1  0
 12 38  1  0
 14 39  1  1
 15 40  1  0
 16 41  1  0
 17 42  1  0
 20 43  1  1
 20 44  1  0
 21 45  1  6
 21 46  1  0
 23 47  1  0
 24 48  1  0
 25 49  1  1
 25 50  1  0
 25 51  1  0
 26 52  1  1
 26 53  1  0
 26 54  1  0
 29 55  1  0
M  END
