
     RDKit          3D

 65 68  0  0  0  0  0  0  0  0999 V2000
    7.9170   -1.2350   21.1900 C   0  0  1  0  0  0  0  0  0  0  0  0
    6.7390   -1.7070   20.4540 N   0  0  0  0  0  0  0  0  0  0  0  0
    6.7180   -1.3740   19.0190 C   0  0  1  0  0  0  0  0  0  0  0  0
    5.9920   -2.8350   20.8610 C   0  0  0  0  0  0  0  0  0  0  0  0
    5.0520   -3.2970   20.2040 O   0  0  0  0  0  0  0  0  0  0  0  0
    6.3970   -3.4190   22.0440 N   0  0  0  0  0  0  0  0  0  0  0  0
    5.9740   -0.1440   18.7940 C   0  0  0  0  0  0  0  0  0  0  0  0
    4.9140    0.4170   19.6540 C   0  0  0  0  0  0  0  0  0  0  0  0
    6.1690    0.6490   17.7470 N   0  0  0  0  0  0  0  0  0  0  0  0
    5.8190   -4.6350   22.5420 C   0  0  2  0  0  0  0  0  0  0  0  0
    5.2730    1.7040   17.9070 O   0  0  0  0  0  0  0  0  0  0  0  0
    4.5260    1.5540   19.0540 C   0  0  0  0  0  0  0  0  0  0  0  0
    6.5680   -5.4150   23.4750 C   0  0  1  0  0  0  0  0  0  0  0  0
    6.1360   -5.8730   21.9380 C   0  0  2  0  0  0  0  0  0  0  0  0
    3.5140    2.5630   19.4200 C   0  0  1  0  0  0  0  0  0  0  0  0
    2.7480    2.0560   20.5220 O   0  0  0  0  0  0  0  0  0  0  0  0
    3.1980    2.5110   21.8010 C   0  0  1  0  0  0  0  0  0  0  0  0
    3.9720    1.3950   22.5270 C   0  0  2  0  0  0  0  0  0  0  0  0
    3.2680    1.0990   23.7450 O   0  0  0  0  0  0  0  0  0  0  0  0
    5.4320    1.8600   22.7410 C   0  0  1  0  0  0  0  0  0  0  0  0
    6.1620    1.1980   23.8350 N   0  0  0  0  0  0  0  0  0  0  0  0
    4.0160    0.2970   24.6620 C   0  0  1  0  0  0  0  0  0  0  0  0
    7.5070    1.4260   24.0270 C   0  0  0  0  0  0  0  0  0  0  0  0
    5.3750    0.8920   25.0310 C   0  0  1  0  0  0  0  0  0  0  0  0
    8.1340    0.5470   24.8550 N   0  0  0  0  0  0  0  0  0  0  0  0
    8.0990    2.3650   23.4930 O   0  0  0  0  0  0  0  0  0  0  0  0
    9.4820    0.8060   25.2580 C   0  0  1  0  0  0  0  0  0  0  0  0
   10.4480    0.2010   24.2960 C   0  0  0  0  0  0  0  0  0  0  0  0
   11.5770    0.9190   23.8660 C   0  0  0  0  0  0  0  0  0  0  0  0
   10.2100   -1.0910   23.8250 C   0  0  0  0  0  0  0  0  0  0  0  0
   12.4550    0.3430   22.9650 C   0  0  0  0  0  0  0  0  0  0  0  0
   11.0820   -1.6620   22.9250 C   0  0  0  0  0  0  0  0  0  0  0  0
   12.1880   -0.9450   22.5030 C   0  0  0  0  0  0  0  0  0  0  0  0
   13.0280   -1.5590   21.5770 C   0  0  0  0  0  0  0  0  0  0  0  0
   13.6180   -2.0380   20.7550 N   0  0  0  0  0  0  0  0  0  0  0  0
    7.6990   -1.0790   22.2510 H   0  0  0  0  0  0  0  0  0  0  0  0
    8.7250   -1.9690   21.1160 H   0  0  0  0  0  0  0  0  0  0  0  0
    8.2480   -0.2710   20.7920 H   0  0  0  0  0  0  0  0  0  0  0  0
    7.7410   -1.2530   18.6410 H   0  0  0  0  0  0  0  0  0  0  0  0
    6.2600   -2.2010   18.4610 H   0  0  0  0  0  0  0  0  0  0  0  0
    6.7360   -2.7700   22.7410 H   0  0  0  0  0  0  0  0  0  0  0  0
    4.6370   -0.1320   20.5640 H   0  0  0  0  0  0  0  0  0  0  0  0
    4.7700   -4.5090   22.7960 H   0  0  0  0  0  0  0  0  0  0  0  0
    7.6070   -5.1570   23.6630 H   0  0  0  0  0  0  0  0  0  0  0  0
    6.0430   -5.8490   24.3160 H   0  0  0  0  0  0  0  0  0  0  0  0
    6.9140   -5.9020   21.1880 H   0  0  0  0  0  0  0  0  0  0  0  0
    5.3580   -6.6220   21.8210 H   0  0  0  0  0  0  0  0  0  0  0  0
    3.9640    3.5300   19.6690 H   0  0  0  0  0  0  0  0  0  0  0  0
    2.8310    2.7140   18.5790 H   0  0  0  0  0  0  0  0  0  0  0  0
    3.8390    3.3970   21.7130 H   0  0  0  0  0  0  0  0  0  0  0  0
    2.3240    2.8100   22.3920 H   0  0  0  0  0  0  0  0  0  0  0  0
    3.9660    0.4890   21.9090 H   0  0  0  0  0  0  0  0  0  0  0  0
    6.0060    1.7240   21.8170 H   0  0  0  0  0  0  0  0  0  0  0  0
    5.4400    2.9300   22.9930 H   0  0  0  0  0  0  0  0  0  0  0  0
    3.4040    0.1530   25.5540 H   0  0  0  0  0  0  0  0  0  0  0  0
    4.1490   -0.6860   24.1980 H   0  0  0  0  0  0  0  0  0  0  0  0
    5.9610    0.1700   25.6160 H   0  0  0  0  0  0  0  0  0  0  0  0
    5.2440    1.7910   25.6420 H   0  0  0  0  0  0  0  0  0  0  0  0
    7.8760   -0.4270   24.7830 H   0  0  0  0  0  0  0  0  0  0  0  0
    9.6290    1.8820   25.3170 H   0  0  0  0  0  0  0  0  0  0  0  0
    9.6240    0.3770   26.2570 H   0  0  0  0  0  0  0  0  0  0  0  0
   11.7640    1.9280   24.2330 H   0  0  0  0  0  0  0  0  0  0  0  0
    9.3340   -1.6520   24.1600 H   0  0  0  0  0  0  0  0  0  0  0  0
   13.3290    0.9020   22.6320 H   0  0  0  0  0  0  0  0  0  0  0  0
   10.8920   -2.6690   22.5530 H   0  0  0  0  0  0  0  0  0  0  0  0
  1  2  1  0
  2  3  1  0
  2  4  1  0
  4  5  2  0
  4  6  1  0
  3  7  1  0
  7  8  1  0
  7  9  2  0
  6 10  1  0
  9 11  1  0
  8 12  2  0
 11 12  1  0
 10 13  1  0
 10 14  1  0
 13 14  1  0
 12 15  1  0
 15 16  1  0
 16 17  1  0
 17 18  1  0
 18 19  1  0
 18 20  1  0
 20 21  1  0
 19 22  1  0
 21 23  1  0
 21 24  1  0
 22 24  1  0
 23 25  1  0
 23 26  2  0
 25 27  1  0
 27 28  1  0
 28 29  2  0
 28 30  1  0
 29 31  1  0
 30 32  2  0
 31 33  2  0
 32 33  1  0
 33 34  1  0
 34 35  3  0
  1 36  1  1
  1 37  1  0
  1 38  1  0
  3 39  1  6
  3 40  1  0
  6 41  1  0
  8 42  1  0
 10 43  1  1
 13 44  1  1
 13 45  1  0
 14 46  1  6
 14 47  1  0
 15 48  1  1
 15 49  1  0
 17 50  1  6
 17 51  1  0
 18 52  1  6
 20 53  1  6
 20 54  1  0
 22 55  1  1
 22 56  1  0
 24 57  1  1
 24 58  1  0
 25 59  1  0
 27 60  1  1
 27 61  1  0
 29 62  1  0
 30 63  1  0
 31 64  1  0
 32 65  1  0
M  END
