
     RDKit          3D

 54 56  0  0  0  0  0  0  0  0999 V2000
    2.3130    1.8200   23.8330 C   0  0  0  0  0  0  0  0  0  0  0  0
    3.3450    2.6020   23.3480 N   0  0  0  0  0  0  0  0  0  0  0  0
    4.4340    2.1010   22.5200 C   0  0  1  0  0  0  0  0  0  0  0  0
    2.2520    0.5980   23.7200 O   0  0  0  0  0  0  0  0  0  0  0  0
    1.2090    2.6130   24.5540 C   0  0  0  0  0  0  0  0  0  0  0  0
    1.4600    3.8200   25.2190 C   0  0  0  0  0  0  0  0  0  0  0  0
   -0.0970    2.1520   24.5700 C   0  0  0  0  0  0  0  0  0  0  0  0
    3.9890    1.1150   21.4420 C   0  0  1  0  0  0  0  0  0  0  0  0
    2.6940    4.3420   25.2530 F   0  0  0  0  0  0  0  0  0  0  0  0
   -1.1090    2.8560   25.2190 C   0  0  0  0  0  0  0  0  0  0  0  0
    0.4420    4.5310   25.8720 C   0  0  0  0  0  0  0  0  0  0  0  0
   -0.8870    4.0610   25.8880 C   0  0  0  0  0  0  0  0  0  0  0  0
    4.9420    0.8420   20.3150 C   0  0  0  0  0  0  0  0  0  0  0  0
    6.2560    0.2860   20.3340 C   0  0  0  0  0  0  0  0  0  0  0  0
    4.4010    1.2030   19.0740 C   0  0  0  0  0  0  0  0  0  0  0  0
    6.9850   -0.1070   21.4930 N   0  0  0  0  0  0  0  0  0  0  0  0
    6.8510    0.1300   19.0870 C   0  0  0  0  0  0  0  0  0  0  0  0
    5.1140    1.0110   17.9230 C   0  0  0  0  0  0  0  0  0  0  0  0
    8.3900    0.3540   21.7800 C   0  0  0  0  0  0  0  0  0  0  0  0
    6.3220    0.4730   17.9040 N   0  0  0  0  0  0  0  0  0  0  0  0
    8.9720    1.2910   21.2160 O   0  0  0  0  0  0  0  0  0  0  0  0
    9.0480   -0.4910   22.8770 C   0  0  1  0  0  0  0  0  0  0  0  0
   10.5850   -0.5480   23.0180 C   0  0  2  0  0  0  0  0  0  0  0  0
   11.2050   -1.5390   22.2630 C   0  0  1  0  0  0  0  0  0  0  0  0
   11.0460   -0.4090   24.3160 C   0  0  2  0  0  0  0  0  0  0  0  0
   12.5550   -1.8150   22.5470 C   0  0  1  0  0  0  0  0  0  0  0  0
   12.4160   -0.3390   24.4550 C   0  0  2  0  0  0  0  0  0  0  0  0
   13.1860   -1.0220   23.5130 C   0  0  1  0  0  0  0  0  0  0  0  0
    3.5720    3.2800   24.0720 H   0  0  0  0  0  0  0  0  0  0  0  0
    4.9180    2.9720   22.0670 H   0  0  0  0  0  0  0  0  0  0  0  0
    5.1640    1.6170   23.1790 H   0  0  0  0  0  0  0  0  0  0  0  0
   -0.2520    1.2040   24.0400 H   0  0  0  0  0  0  0  0  0  0  0  0
    3.7920    0.1560   21.9420 H   0  0  0  0  0  0  0  0  0  0  0  0
    3.0040    1.3920   21.0530 H   0  0  0  0  0  0  0  0  0  0  0  0
   -2.1510    2.5200   25.2530 H   0  0  0  0  0  0  0  0  0  0  0  0
    0.6910    5.4630   26.3710 H   0  0  0  0  0  0  0  0  0  0  0  0
   -1.6860    4.6020   26.3890 H   0  0  0  0  0  0  0  0  0  0  0  0
    3.4070    1.6400   19.0010 H   0  0  0  0  0  0  0  0  0  0  0  0
    6.7290   -0.9940   21.9170 H   0  0  0  0  0  0  0  0  0  0  0  0
    7.8280   -0.2990   18.9780 H   0  0  0  0  0  0  0  0  0  0  0  0
    4.7140    1.2890   16.9700 H   0  0  0  0  0  0  0  0  0  0  0  0
    8.6270   -0.1410   23.8320 H   0  0  0  0  0  0  0  0  0  0  0  0
    8.6960   -1.5200   22.7460 H   0  0  0  0  0  0  0  0  0  0  0  0
   10.8900    0.3920   22.5240 H   0  0  0  0  0  0  0  0  0  0  0  0
   10.6930   -2.4560   22.5900 H   0  0  0  0  0  0  0  0  0  0  0  0
   11.0040   -1.5540   21.2040 H   0  0  0  0  0  0  0  0  0  0  0  0
   10.6490   -1.2010   24.9560 H   0  0  0  0  0  0  0  0  0  0  0  0
   10.6320    0.5240   24.7120 H   0  0  0  0  0  0  0  0  0  0  0  0
   12.7490   -2.8800   22.6530 H   0  0  0  0  0  0  0  0  0  0  0  0
   13.0900   -1.6030   21.6170 H   0  0  0  0  0  0  0  0  0  0  0  0
   12.6910   -0.6880   25.4570 H   0  0  0  0  0  0  0  0  0  0  0  0
   12.7000    0.7090   24.4250 H   0  0  0  0  0  0  0  0  0  0  0  0
   13.8910   -1.6550   24.0520 H   0  0  0  0  0  0  0  0  0  0  0  0
   13.7820   -0.2750   22.9840 H   0  0  0  0  0  0  0  0  0  0  0  0
  1  2  1  0
  2  3  1  0
  1  4  2  0
  1  5  1  0
  5  6  2  0
  5  7  1  0
  3  8  1  0
  6  9  1  0
  7 10  2  0
  6 11  1  0
 10 12  1  0
 11 12  2  0
  8 13  1  0
 13 14  1  0
 13 15  2  0
 14 16  1  0
 14 17  2  0
 15 18  1  0
 16 19  1  0
 17 20  1  0
 18 20  2  0
 19 21  2  0
 19 22  1  0
 22 23  1  0
 23 24  1  0
 23 25  1  0
 24 26  1  0
 25 27  1  0
 26 28  1  0
 27 28  1  0
  2 29  1  0
  3 30  1  6
  3 31  1  0
  7 32  1  0
  8 33  1  1
  8 34  1  0
 10 35  1  0
 11 36  1  0
 12 37  1  0
 15 38  1  0
 16 39  1  0
 17 40  1  0
 18 41  1  0
 22 42  1  1
 22 43  1  0
 23 44  1  6
 24 45  1  1
 24 46  1  0
 25 47  1  1
 25 48  1  0
 26 49  1  1
 26 50  1  0
 27 51  1  1
 27 52  1  0
 28 53  1  1
 28 54  1  0
M  END
