
     RDKit          3D

 45 47  0  0  0  0  0  0  0  0999 V2000
    8.5860    0.9710   21.3370 O   0  0  0  0  0  0  0  0  0  0  0  0
    8.2090   -0.1360   21.6980 C   0  0  0  0  0  0  0  0  0  0  0  0
    8.8870   -0.8690   22.6440 N   0  0  0  0  0  0  0  0  0  0  0  0
    7.0850   -0.7270   21.1640 N   0  0  0  0  0  0  0  0  0  0  0  0
   10.2790   -0.7210   22.6550 C   0  0  0  0  0  0  0  0  0  0  0  0
    6.4280   -0.0880   20.0990 C   0  0  0  0  0  0  0  0  0  0  0  0
   10.7190    0.5790   22.9090 C   0  0  0  0  0  0  0  0  0  0  0  0
   11.1870   -1.7340   22.4050 C   0  0  0  0  0  0  0  0  0  0  0  0
    5.2350    0.6070   20.3450 C   0  0  0  0  0  0  0  0  0  0  0  0
    6.8970   -0.0890   18.8030 C   0  0  0  0  0  0  0  0  0  0  0  0
   12.0910    0.8100   22.8650 C   0  0  0  0  0  0  0  0  0  0  0  0
   12.5320   -1.4500   22.4010 C   0  0  0  0  0  0  0  0  0  0  0  0
    4.5850    1.2670   19.2860 C   0  0  0  0  0  0  0  0  0  0  0  0
    6.2990    0.5370   17.7680 N   0  0  0  0  0  0  0  0  0  0  0  0
    9.8750    1.6270   23.1790 N   0  0  0  0  0  0  0  0  0  0  0  0
   13.3990   -2.4200   22.1580 F   0  0  0  0  0  0  0  0  0  0  0  0
   12.9930   -0.1870   22.6280 C   0  0  0  0  0  0  0  0  0  0  0  0
    5.1620    1.2040   18.0180 C   0  0  0  0  0  0  0  0  0  0  0  0
   10.4410    2.9620   23.3610 C   0  0  0  0  0  0  0  0  0  0  0  0
   12.5890    2.0650   23.0380 C   0  0  0  0  0  0  0  0  0  0  0  0
   11.8060    3.1670   23.2760 C   0  0  0  0  0  0  0  0  0  0  0  0
   12.4800    4.4980   23.4340 C   0  0  2  0  0  0  0  0  0  0  0  0
   12.2470    5.4620   22.3180 C   0  0  2  0  0  0  0  0  0  0  0  0
   11.4100    6.4430   22.6900 N   0  0  0  0  0  0  0  0  0  0  0  0
   10.2310    6.2390   23.3720 C   0  0  0  0  0  0  0  0  0  0  0  0
    8.9990    6.4640   22.5330 C   0  0  1  0  0  0  0  0  0  0  0  0
   10.1660    5.9300   24.5570 O   0  0  0  0  0  0  0  0  0  0  0  0
    8.6150   -1.8380   22.7790 H   0  0  0  0  0  0  0  0  0  0  0  0
    6.5110   -1.2590   21.8020 H   0  0  0  0  0  0  0  0  0  0  0  0
   10.8790   -2.7520   22.2040 H   0  0  0  0  0  0  0  0  0  0  0  0
    4.8020    0.6490   21.3400 H   0  0  0  0  0  0  0  0  0  0  0  0
    7.8110   -0.6080   18.5190 H   0  0  0  0  0  0  0  0  0  0  0  0
    3.6610    1.8150   19.4450 H   0  0  0  0  0  0  0  0  0  0  0  0
   14.0500    0.0050   22.6040 H   0  0  0  0  0  0  0  0  0  0  0  0
    4.7170    1.6970   17.1660 H   0  0  0  0  0  0  0  0  0  0  0  0
    9.7360    3.7650   23.5600 H   0  0  0  0  0  0  0  0  0  0  0  0
   13.6540    2.1970   22.9730 H   0  0  0  0  0  0  0  0  0  0  0  0
   13.5630    4.3340   23.5280 H   0  0  0  0  0  0  0  0  0  0  0  0
   12.1630    4.9650   24.3760 H   0  0  0  0  0  0  0  0  0  0  0  0
   11.8270    4.9700   21.4370 H   0  0  0  0  0  0  0  0  0  0  0  0
   13.2040    5.8980   22.0050 H   0  0  0  0  0  0  0  0  0  0  0  0
   11.7360    7.3980   22.6130 H   0  0  0  0  0  0  0  0  0  0  0  0
    8.2470    6.9850   23.1290 H   0  0  0  0  0  0  0  0  0  0  0  0
    9.2630    7.0730   21.6600 H   0  0  0  0  0  0  0  0  0  0  0  0
    8.5650    5.5170   22.1870 H   0  0  0  0  0  0  0  0  0  0  0  0
  1  2  2  0
  2  3  1  0
  2  4  1  0
  3  5  1  0
  4  6  1  0
  5  7  1  0
  5  8  2  0
  6  9  2  0
  6 10  1  0
  7 11  2  0
  8 12  1  0
  9 13  1  0
 10 14  2  0
  7 15  1  0
 12 16  1  0
 11 17  1  0
 12 17  2  0
 13 18  2  0
 14 18  1  0
 15 19  2  0
 11 20  1  0
 19 21  1  0
 20 21  2  0
 21 22  1  0
 22 23  1  0
 23 24  1  0
 24 25  1  0
 25 26  1  0
 25 27  2  0
  3 28  1  0
  4 29  1  0
  8 30  1  0
  9 31  1  0
 10 32  1  0
 13 33  1  0
 17 34  1  0
 18 35  1  0
 19 36  1  0
 20 37  1  0
 22 38  1  1
 22 39  1  0
 23 40  1  6
 23 41  1  0
 24 42  1  0
 26 43  1  1
 26 44  1  0
 26 45  1  0
M  END
