
     RDKit          3D

 60 63  0  0  0  0  0  0  0  0999 V2000
    8.4120    0.9930   21.3370 O   0  0  0  0  0  0  0  0  0  0  0  0
    8.1090   -0.1860   21.4980 C   0  0  0  0  0  0  0  0  0  0  0  0
    8.9280   -1.0090   22.2130 N   0  0  0  0  0  0  0  0  0  0  0  0
    6.9910   -0.7720   20.9770 N   0  0  0  0  0  0  0  0  0  0  0  0
   10.2380   -0.4470   22.1250 C   0  0  1  0  0  0  0  0  0  0  0  0
    6.2880   -0.0670   20.0040 C   0  0  0  0  0  0  0  0  0  0  0  0
   10.4290    0.7420   23.0510 C   0  0  1  0  0  0  0  0  0  0  0  0
   11.4500   -1.3800   22.1950 C   0  0  2  0  0  0  0  0  0  0  0  0
    5.0780    0.5860   20.2000 C   0  0  0  0  0  0  0  0  0  0  0  0
    6.8610   -0.0090   18.7550 C   0  0  0  0  0  0  0  0  0  0  0  0
   11.4760    0.2910   24.0180 C   0  0  2  0  0  0  0  0  0  0  0  0
   12.3230   -0.7110   23.2530 C   0  0  1  0  0  0  0  0  0  0  0  0
    4.5040    1.2770   19.1370 C   0  0  0  0  0  0  0  0  0  0  0  0
    6.3480    0.6450   17.7040 N   0  0  0  0  0  0  0  0  0  0  0  0
    5.1800    1.2800   17.9080 C   0  0  0  0  0  0  0  0  0  0  0  0
   12.8980   -1.6280   24.1620 N   0  0  0  0  0  0  0  0  0  0  0  0
   10.7830   -0.3080   25.2270 C   0  0  2  0  0  0  0  0  0  0  0  0
   12.0620   -2.7850   24.4120 C   0  0  1  0  0  0  0  0  0  0  0  0
    9.9970   -1.5040   25.0560 N   0  0  0  0  0  0  0  0  0  0  0  0
    8.7180   -1.4560   25.6410 C   0  0  0  0  0  0  0  0  0  0  0  0
   10.6530   -2.7300   24.5540 C   0  0  1  0  0  0  0  0  0  0  0  0
    7.8590   -2.3210   25.4240 O   0  0  0  0  0  0  0  0  0  0  0  0
    8.4000   -0.2850   26.5940 C   0  0  2  0  0  0  0  0  0  0  0  0
    7.3150   -0.5450   27.4880 O   0  0  0  0  0  0  0  0  0  0  0  0
    6.9620    0.5160   28.2810 C   0  0  0  0  0  0  0  0  0  0  0  0
    7.6640    1.7130   28.3510 C   0  0  0  0  0  0  0  0  0  0  0  0
    5.8110    0.3500   29.0570 C   0  0  0  0  0  0  0  0  0  0  0  0
    7.2240    2.7420   29.1910 C   0  0  0  0  0  0  0  0  0  0  0  0
    5.3680    1.3780   29.8980 C   0  0  0  0  0  0  0  0  0  0  0  0
    6.0730    2.5850   29.9710 C   0  0  0  0  0  0  0  0  0  0  0  0
    5.6040    3.6950   30.8690 C   0  0  1  0  0  0  0  0  0  0  0  0
    8.8410   -1.9890   21.9780 H   0  0  0  0  0  0  0  0  0  0  0  0
    6.4450   -1.3160   21.6320 H   0  0  0  0  0  0  0  0  0  0  0  0
   10.1990   -0.0570   21.1350 H   0  0  0  0  0  0  0  0  0  0  0  0
   10.8240    1.5880   22.4800 H   0  0  0  0  0  0  0  0  0  0  0  0
    9.5090    1.0820   23.5390 H   0  0  0  0  0  0  0  0  0  0  0  0
   11.7230   -1.6300   21.1820 H   0  0  0  0  0  0  0  0  0  0  0  0
   11.1140   -2.3440   22.5860 H   0  0  0  0  0  0  0  0  0  0  0  0
    4.5670    0.5810   21.1590 H   0  0  0  0  0  0  0  0  0  0  0  0
    7.8020   -0.5060   18.5430 H   0  0  0  0  0  0  0  0  0  0  0  0
   12.0750    1.1570   24.3130 H   0  0  0  0  0  0  0  0  0  0  0  0
   13.1500   -0.1700   22.7650 H   0  0  0  0  0  0  0  0  0  0  0  0
    3.5630    1.8020   19.2530 H   0  0  0  0  0  0  0  0  0  0  0  0
    4.7840    1.8060   17.0490 H   0  0  0  0  0  0  0  0  0  0  0  0
   13.0740   -1.1650   25.0540 H   0  0  0  0  0  0  0  0  0  0  0  0
   10.1080    0.4210   25.6810 H   0  0  0  0  0  0  0  0  0  0  0  0
   11.5530   -0.4860   25.9560 H   0  0  0  0  0  0  0  0  0  0  0  0
   12.2360   -3.4010   23.5340 H   0  0  0  0  0  0  0  0  0  0  0  0
   12.4900   -3.3770   25.2290 H   0  0  0  0  0  0  0  0  0  0  0  0
   10.2050   -2.9320   23.5750 H   0  0  0  0  0  0  0  0  0  0  0  0
   10.3430   -3.5760   25.1660 H   0  0  0  0  0  0  0  0  0  0  0  0
    8.1680    0.5860   25.9640 H   0  0  0  0  0  0  0  0  0  0  0  0
    9.3190   -0.0700   27.1520 H   0  0  0  0  0  0  0  0  0  0  0  0
    8.5630    1.8810   27.7600 H   0  0  0  0  0  0  0  0  0  0  0  0
    5.2570   -0.5830   29.0090 H   0  0  0  0  0  0  0  0  0  0  0  0
    7.7900    3.6720   29.2300 H   0  0  0  0  0  0  0  0  0  0  0  0
    4.4720    1.2300   30.4930 H   0  0  0  0  0  0  0  0  0  0  0  0
    5.9420    3.5100   31.8960 H   0  0  0  0  0  0  0  0  0  0  0  0
    6.0010    4.6600   30.5300 H   0  0  0  0  0  0  0  0  0  0  0  0
    4.5130    3.7710   30.8730 H   0  0  0  0  0  0  0  0  0  0  0  0
  1  2  2  0
  2  3  1  0
  2  4  1  0
  3  5  1  0
  4  6  1  0
  5  7  1  0
  5  8  1  0
  6  9  2  0
  6 10  1  0
  7 11  1  0
  8 12  1  0
 11 12  1  0
  9 13  1  0
 10 14  2  0
 13 15  2  0
 14 15  1  0
 12 16  1  0
 11 17  1  0
 16 18  1  0
 17 19  1  0
 19 20  1  0
 18 21  1  0
 19 21  1  0
 20 22  2  0
 20 23  1  0
 23 24  1  0
 24 25  1  0
 25 26  2  0
 25 27  1  0
 26 28  1  0
 27 29  2  0
 28 30  2  0
 29 30  1  0
 30 31  1  0
  3 32  1  0
  4 33  1  0
  5 34  1  6
  7 35  1  6
  7 36  1  0
  8 37  1  6
  8 38  1  0
  9 39  1  0
 10 40  1  0
 11 41  1  1
 12 42  1  6
 13 43  1  0
 15 44  1  0
 16 45  1  0
 17 46  1  1
 17 47  1  0
 18 48  1  6
 18 49  1  0
 21 50  1  6
 21 51  1  0
 23 52  1  6
 23 53  1  0
 26 54  1  0
 27 55  1  0
 28 56  1  0
 29 57  1  0
 31 58  1  1
 31 59  1  0
 31 60  1  0
M  END
