
     RDKit          3D

 38 39  0  0  0  0  0  0  0  0999 V2000
   22.7020   15.1860    8.4840 C   0  0  1  0  0  0  0  0  0  0  0  0
   21.5830   14.8380    7.5000 C   0  0  2  0  0  0  0  0  0  0  0  0
   20.8800   13.5260    7.8710 C   0  0  1  0  0  0  0  0  0  0  0  0
   21.9130   14.9720    6.0760 N   0  0  0  0  0  0  0  0  0  0  0  0
   19.5510   13.6050    7.4040 O   0  0  0  0  0  0  0  0  0  0  0  0
   22.5220   16.1980    5.6220 C   0  0  1  0  0  0  0  0  0  0  0  0
   22.4490   13.7680    5.4610 C   0  0  1  0  0  0  0  0  0  0  0  0
   21.5570   12.3050    7.2580 C   0  0  2  0  0  0  0  0  0  0  0  0
   22.7810   12.6660    6.4550 C   0  0  1  0  0  0  0  0  0  0  0  0
   21.6720   17.4310    5.5650 C   0  0  0  0  0  0  0  0  0  0  0  0
   21.8930   18.3370    4.5320 C   0  0  0  0  0  0  0  0  0  0  0  0
   20.6700   17.7200    6.5030 C   0  0  0  0  0  0  0  0  0  0  0  0
   21.1500   19.5050    4.4350 C   0  0  0  0  0  0  0  0  0  0  0  0
   19.9140   18.8860    6.4030 C   0  0  0  0  0  0  0  0  0  0  0  0
   21.4420   20.4690    3.3430 C   0  0  2  0  0  0  0  0  0  0  0  0
   20.1560   19.7780    5.3700 C   0  0  0  0  0  0  0  0  0  0  0  0
   22.1170   21.5710    3.9360 O   0  0  0  0  0  0  0  0  0  0  0  0
   22.4380   14.9480    9.5170 H   0  0  0  0  0  0  0  0  0  0  0  0
   23.6260   14.6530    8.2300 H   0  0  0  0  0  0  0  0  0  0  0  0
   22.9310   16.2560    8.4450 H   0  0  0  0  0  0  0  0  0  0  0  0
   20.8350   15.6230    7.6890 H   0  0  0  0  0  0  0  0  0  0  0  0
   20.8190   13.4130    8.9570 H   0  0  0  0  0  0  0  0  0  0  0  0
   19.0750   14.1630    8.0360 H   0  0  0  0  0  0  0  0  0  0  0  0
   23.3720   16.4100    6.2860 H   0  0  0  0  0  0  0  0  0  0  0  0
   23.0080   16.0570    4.6480 H   0  0  0  0  0  0  0  0  0  0  0  0
   21.6880   13.3830    4.7700 H   0  0  0  0  0  0  0  0  0  0  0  0
   23.3200   13.9870    4.8310 H   0  0  0  0  0  0  0  0  0  0  0  0
   20.8670   11.8030    6.5960 H   0  0  0  0  0  0  0  0  0  0  0  0
   21.8070   11.5730    8.0370 H   0  0  0  0  0  0  0  0  0  0  0  0
   23.1480   11.7700    5.9460 H   0  0  0  0  0  0  0  0  0  0  0  0
   23.5830   12.9960    7.1280 H   0  0  0  0  0  0  0  0  0  0  0  0
   22.6680   18.1330    3.7940 H   0  0  0  0  0  0  0  0  0  0  0  0
   20.4640   17.0370    7.3250 H   0  0  0  0  0  0  0  0  0  0  0  0
   19.1390   19.0970    7.1340 H   0  0  0  0  0  0  0  0  0  0  0  0
   20.5280   20.8260    2.8640 H   0  0  0  0  0  0  0  0  0  0  0  0
   22.0740   20.0240    2.5660 H   0  0  0  0  0  0  0  0  0  0  0  0
   19.5710   20.6850    5.3050 H   0  0  0  0  0  0  0  0  0  0  0  0
   23.0350   21.5720    3.6070 H   0  0  0  0  0  0  0  0  0  0  0  0
  1  2  1  0
  2  3  1  0
  2  4  1  0
  3  5  1  0
  4  6  1  0
  4  7  1  0
  3  8  1  0
  7  9  1  0
  8  9  1  0
  6 10  1  0
 10 11  2  0
 10 12  1  0
 11 13  1  0
 12 14  2  0
 13 15  1  0
 13 16  2  0
 14 16  1  0
 15 17  1  0
  1 18  1  1
  1 19  1  0
  1 20  1  0
  2 21  1  1
  3 22  1  1
  5 23  1  0
  6 24  1  1
  6 25  1  0
  7 26  1  6
  7 27  1  0
  8 28  1  6
  8 29  1  0
  9 30  1  6
  9 31  1  0
 11 32  1  0
 12 33  1  0
 14 34  1  0
 15 35  1  6
 15 36  1  0
 16 37  1  0
 17 38  1  0
M  END
