
     RDKit          3D

 46 47  0  0  0  0  0  0  0  0999 V2000
    2.6970    1.3570   24.2680 O   0  0  0  0  0  0  0  0  0  0  0  0
    2.8100    2.2530   23.4450 C   0  0  0  0  0  0  0  0  0  0  0  0
    3.9250    2.4220   22.6690 N   0  0  0  0  0  0  0  0  0  0  0  0
    1.8860    3.2030   23.1680 N   0  0  0  0  0  0  0  0  0  0  0  0
    5.1430    1.6160   22.8800 C   0  0  1  0  0  0  0  0  0  0  0  0
    0.6170    3.3720   23.8660 C   0  0  1  0  0  0  0  0  0  0  0  0
    5.0570    0.2820   22.1340 C   0  0  1  0  0  0  0  0  0  0  0  0
    0.4920    4.7930   24.4370 C   0  0  1  0  0  0  0  0  0  0  0  0
   -0.5960    2.9110   23.0350 C   0  0  2  0  0  0  0  0  0  0  0  0
    5.4770    0.3990   20.6990 C   0  0  0  0  0  0  0  0  0  0  0  0
   -0.8460    4.9380   25.1640 C   0  0  1  0  0  0  0  0  0  0  0  0
   -1.9480    3.1750   23.7180 C   0  0  2  0  0  0  0  0  0  0  0  0
    6.7140   -0.0630   20.1940 C   0  0  0  0  0  0  0  0  0  0  0  0
    4.4810    1.0750   19.7670 C   0  0  0  0  0  0  0  0  0  0  0  0
   -2.0220    4.6070   24.2570 C   0  0  1  0  0  0  0  0  0  0  0  0
    7.5190   -0.5730   20.8890 N   0  0  0  0  0  0  0  0  0  0  0  0
    6.9210    0.1660   18.6580 C   0  0  0  0  0  0  0  0  0  0  0  0
    4.9030    1.2050   18.3210 C   0  0  0  0  0  0  0  0  0  0  0  0
    8.6630    0.0490   21.4060 C   0  0  0  0  0  0  0  0  0  0  0  0
    6.0480    0.7690   17.8220 N   0  0  0  0  0  0  0  0  0  0  0  0
    9.5400   -0.8570   22.2470 C   0  0  1  0  0  0  0  0  0  0  0  0
    9.0220    1.2280   21.2140 O   0  0  0  0  0  0  0  0  0  0  0  0
    4.0750    3.3710   22.3650 H   0  0  0  0  0  0  0  0  0  0  0  0
    1.9370    3.5770   22.2320 H   0  0  0  0  0  0  0  0  0  0  0  0
    6.0050    2.1910   22.5230 H   0  0  0  0  0  0  0  0  0  0  0  0
    5.2490    1.4650   23.9590 H   0  0  0  0  0  0  0  0  0  0  0  0
    0.6950    2.6850   24.7210 H   0  0  0  0  0  0  0  0  0  0  0  0
    5.7350   -0.4270   22.6250 H   0  0  0  0  0  0  0  0  0  0  0  0
    4.0400   -0.1300   22.2140 H   0  0  0  0  0  0  0  0  0  0  0  0
    1.4010    5.0300   24.9870 H   0  0  0  0  0  0  0  0  0  0  0  0
    0.4960    5.4930   23.5940 H   0  0  0  0  0  0  0  0  0  0  0  0
   -0.5170    1.8490   22.7700 H   0  0  0  0  0  0  0  0  0  0  0  0
   -0.5920    3.4580   22.0840 H   0  0  0  0  0  0  0  0  0  0  0  0
   -0.8680    4.2940   26.0510 H   0  0  0  0  0  0  0  0  0  0  0  0
   -0.9470    5.9690   25.5260 H   0  0  0  0  0  0  0  0  0  0  0  0
   -2.0930    2.4700   24.5440 H   0  0  0  0  0  0  0  0  0  0  0  0
   -2.7700    3.0020   23.0140 H   0  0  0  0  0  0  0  0  0  0  0  0
    3.5210    1.4540   20.1030 H   0  0  0  0  0  0  0  0  0  0  0  0
   -2.9650    4.7340   24.8000 H   0  0  0  0  0  0  0  0  0  0  0  0
   -2.0450    5.3200   23.4240 H   0  0  0  0  0  0  0  0  0  0  0  0
    7.2600   -1.4670   21.3160 H   0  0  0  0  0  0  0  0  0  0  0  0
    7.8320   -0.1660   18.1840 H   0  0  0  0  0  0  0  0  0  0  0  0
    4.2440    1.6870   17.6210 H   0  0  0  0  0  0  0  0  0  0  0  0
    9.6920   -1.7750   21.6710 H   0  0  0  0  0  0  0  0  0  0  0  0
   10.5180   -0.3950   22.4150 H   0  0  0  0  0  0  0  0  0  0  0  0
    9.1670   -1.1600   23.2290 H   0  0  0  0  0  0  0  0  0  0  0  0
  1  2  2  0
  2  3  1  0
  2  4  1  0
  3  5  1  0
  4  6  1  0
  5  7  1  0
  6  8  1  0
  6  9  1  0
  7 10  1  0
  8 11  1  0
  9 12  1  0
 10 13  2  0
 10 14  1  0
 11 15  1  0
 12 15  1  0
 13 16  1  0
 13 17  1  0
 14 18  2  0
 16 19  1  0
 17 20  2  0
 18 20  1  0
 19 21  1  0
 19 22  2  0
  3 23  1  0
  4 24  1  0
  5 25  1  6
  5 26  1  0
  6 27  1  1
  7 28  1  1
  7 29  1  0
  8 30  1  1
  8 31  1  0
  9 32  1  6
  9 33  1  0
 11 34  1  1
 11 35  1  0
 12 36  1  1
 12 37  1  0
 14 38  1  0
 15 39  1  1
 15 40  1  0
 16 41  1  0
 17 42  1  0
 18 43  1  0
 21 44  1  6
 21 45  1  0
 21 46  1  0
M  END
