
     RDKit          3D

 55 57  0  0  0  0  0  0  0  0999 V2000
    2.6850    1.4210   24.2850 O   0  0  0  0  0  0  0  0  0  0  0  0
    2.7800    2.2840   23.4280 C   0  0  0  0  0  0  0  0  0  0  0  0
    3.9110    2.4820   22.6740 N   0  0  0  0  0  0  0  0  0  0  0  0
    1.7870    3.1800   23.0900 N   0  0  0  0  0  0  0  0  0  0  0  0
    4.9940    1.5210   22.7610 C   0  0  1  0  0  0  0  0  0  0  0  0
    0.5810    3.3190   23.9080 C   0  0  1  0  0  0  0  0  0  0  0  0
    4.7630    0.2700   21.8980 C   0  0  1  0  0  0  0  0  0  0  0  0
    0.4990    4.7300   24.5310 C   0  0  1  0  0  0  0  0  0  0  0  0
   -0.5410    2.9910   23.1410 C   0  0  2  0  0  0  0  0  0  0  0  0
    5.2640    0.3840   20.4840 C   0  0  0  0  0  0  0  0  0  0  0  0
   -0.8690    5.0060   25.1440 C   0  0  1  0  0  0  0  0  0  0  0  0
   -1.8430    3.1430   23.6880 C   0  0  2  0  0  0  0  0  0  0  0  0
    6.4830   -0.1620   20.0360 C   0  0  0  0  0  0  0  0  0  0  0  0
    4.4600    1.0900   19.5710 C   0  0  0  0  0  0  0  0  0  0  0  0
   -1.9890    4.5810   24.1970 C   0  0  1  0  0  0  0  0  0  0  0  0
    7.3330   -0.8510   20.9350 N   0  0  0  0  0  0  0  0  0  0  0  0
    6.7990    0.0290   18.7110 C   0  0  0  0  0  0  0  0  0  0  0  0
    4.8960    1.2240   18.2660 C   0  0  0  0  0  0  0  0  0  0  0  0
    8.4310   -0.2140   21.5000 C   0  0  0  0  0  0  0  0  0  0  0  0
    6.0320    0.7100   17.8260 N   0  0  0  0  0  0  0  0  0  0  0  0
    8.6850    0.9630   21.2860 O   0  0  0  0  0  0  0  0  0  0  0  0
    9.1940   -0.9920   22.2840 N   0  0  0  0  0  0  0  0  0  0  0  0
   10.5520   -0.6970   22.4960 C   0  0  0  0  0  0  0  0  0  0  0  0
   10.8070    0.6230   22.8980 C   0  0  0  0  0  0  0  0  0  0  0  0
   11.5650   -1.5730   22.3260 C   0  0  0  0  0  0  0  0  0  0  0  0
   12.0090    1.3370   23.1960 C   0  0  0  0  0  0  0  0  0  0  0  0
   12.8050   -1.1020   22.5620 C   0  0  0  0  0  0  0  0  0  0  0  0
   13.0010    0.2110   22.9530 C   0  0  0  0  0  0  0  0  0  0  0  0
    4.1520    3.4440   22.4850 H   0  0  0  0  0  0  0  0  0  0  0  0
    1.6980    3.3620   22.1020 H   0  0  0  0  0  0  0  0  0  0  0  0
    5.9400    2.0070   22.4960 H   0  0  0  0  0  0  0  0  0  0  0  0
    5.0620    1.2220   23.8120 H   0  0  0  0  0  0  0  0  0  0  0  0
    0.6630    2.5990   24.7310 H   0  0  0  0  0  0  0  0  0  0  0  0
    5.2550   -0.5830   22.3840 H   0  0  0  0  0  0  0  0  0  0  0  0
    3.6960    0.0110   21.8910 H   0  0  0  0  0  0  0  0  0  0  0  0
    1.2770    4.8790   25.2880 H   0  0  0  0  0  0  0  0  0  0  0  0
    0.6820    5.4780   23.7480 H   0  0  0  0  0  0  0  0  0  0  0  0
   -0.4260    1.9500   22.8180 H   0  0  0  0  0  0  0  0  0  0  0  0
   -0.5140    3.5730   22.2110 H   0  0  0  0  0  0  0  0  0  0  0  0
   -0.9720    4.4660   26.0910 H   0  0  0  0  0  0  0  0  0  0  0  0
   -0.9590    6.0770   25.3540 H   0  0  0  0  0  0  0  0  0  0  0  0
   -2.1420    2.3530   24.3730 H   0  0  0  0  0  0  0  0  0  0  0  0
   -2.5530    3.0340   22.8600 H   0  0  0  0  0  0  0  0  0  0  0  0
    3.5140    1.5360   19.8610 H   0  0  0  0  0  0  0  0  0  0  0  0
   -2.9510    4.6990   24.7110 H   0  0  0  0  0  0  0  0  0  0  0  0
   -2.0200    5.2580   23.3330 H   0  0  0  0  0  0  0  0  0  0  0  0
    6.9210   -1.5780   21.4910 H   0  0  0  0  0  0  0  0  0  0  0  0
    7.7120   -0.3560   18.2750 H   0  0  0  0  0  0  0  0  0  0  0  0
    4.3270    1.7640   17.5340 H   0  0  0  0  0  0  0  0  0  0  0  0
    8.9270   -1.9650   22.3490 H   0  0  0  0  0  0  0  0  0  0  0  0
    9.9220    1.2450   23.0050 H   0  0  0  0  0  0  0  0  0  0  0  0
   11.4270   -2.6070   22.0140 H   0  0  0  0  0  0  0  0  0  0  0  0
   12.1700    2.3700   23.5010 H   0  0  0  0  0  0  0  0  0  0  0  0
   13.6600   -1.7640   22.4390 H   0  0  0  0  0  0  0  0  0  0  0  0
   14.0240    0.4880   23.1090 H   0  0  0  0  0  0  0  0  0  0  0  0
  1  2  2  0
  2  3  1  0
  2  4  1  0
  3  5  1  0
  4  6  1  0
  5  7  1  0
  6  8  1  0
  6  9  1  0
  7 10  1  0
  8 11  1  0
  9 12  1  0
 10 13  1  0
 10 14  2  0
 11 15  1  0
 12 15  1  0
 13 16  1  0
 13 17  2  0
 14 18  1  0
 16 19  1  0
 17 20  1  0
 18 20  2  0
 19 21  2  0
 19 22  1  0
 22 23  1  0
 23 24  2  0
 23 25  1  0
 24 26  1  0
 25 27  2  0
 26 28  2  0
 27 28  1  0
  3 29  1  0
  4 30  1  0
  5 31  1  6
  5 32  1  0
  6 33  1  1
  7 34  1  1
  7 35  1  0
  8 36  1  1
  8 37  1  0
  9 38  1  6
  9 39  1  0
 11 40  1  1
 11 41  1  0
 12 42  1  1
 12 43  1  0
 14 44  1  0
 15 45  1  1
 15 46  1  0
 16 47  1  0
 17 48  1  0
 18 49  1  0
 22 50  1  0
 24 51  1  0
 25 52  1  0
 26 53  1  0
 27 54  1  0
 28 55  1  0
M  END
