
     RDKit          3D

 55 55  0  0  0  0  0  0  0  0999 V2000
   27.1150  -10.0910    4.9070 C   0  0  1  0  0  0  0  0  0  0  0  0
   26.3290  -10.6270    3.6770 C   0  0  2  0  0  0  0  0  0  0  0  0
   24.5240  -10.3800    3.6370 S   0  0  0  0  0  0  0  0  0  0  0  0
   26.6610   -8.6700    5.4170 C   0  0  1  0  0  0  0  0  0  0  0  0
   27.3900  -11.0470    6.0070 N   0  0  0  0  0  0  0  0  0  0  0  0
   25.5680   -8.6250    6.5060 C   0  0  1  0  0  0  0  0  0  0  0  0
   27.8110   -7.6530    5.6540 C   0  0  1  0  0  0  0  0  0  0  0  0
   28.4450  -10.6760    6.9560 C   0  0  1  0  0  0  0  0  0  0  0  0
   27.3250  -12.4920    5.7600 C   0  0  2  0  0  0  0  0  0  0  0  0
   25.1040   -7.2580    7.0310 C   0  0  1  0  0  0  0  0  0  0  0  0
   27.6900   -6.2750    4.9870 C   0  0  1  0  0  0  0  0  0  0  0  0
   28.3460  -11.5330    8.2290 C   0  0  1  0  0  0  0  0  0  0  0  0
   27.3420  -13.3510    7.0390 C   0  0  2  0  0  0  0  0  0  0  0  0
   27.0250   -5.2550    5.9060 C   0  0  1  0  0  0  0  0  0  0  0  0
   28.3320  -12.9460    7.9890 O   0  0  0  0  0  0  0  0  0  0  0  0
   24.0610   -6.5440    6.1320 C   0  0  1  0  0  0  0  0  0  0  0  0
   24.6180   -6.2600    4.7120 C   0  0  2  0  0  0  0  0  0  0  0  0
   22.7270   -7.3160    5.9790 C   0  0  1  0  0  0  0  0  0  0  0  0
   23.8190   -6.8380    3.5590 C   0  0  1  0  0  0  0  0  0  0  0  0
   22.8170   -8.6980    5.3630 C   0  0  2  0  0  0  0  0  0  0  0  0
   28.1230   -9.9090    4.5090 H   0  0  0  0  0  0  0  0  0  0  0  0
   26.5250  -11.6910    3.5350 H   0  0  0  0  0  0  0  0  0  0  0  0
   26.7150  -10.1370    2.7780 H   0  0  0  0  0  0  0  0  0  0  0  0
   24.2960  -10.6160    4.9410 H   0  0  0  0  0  0  0  0  0  0  0  0
   26.1480   -8.2330    4.5460 H   0  0  0  0  0  0  0  0  0  0  0  0
   24.7080   -9.1450    6.0740 H   0  0  0  0  0  0  0  0  0  0  0  0
   25.8540   -9.2470    7.3590 H   0  0  0  0  0  0  0  0  0  0  0  0
   27.9620   -7.5310    6.7340 H   0  0  0  0  0  0  0  0  0  0  0  0
   28.7350   -8.1160    5.2840 H   0  0  0  0  0  0  0  0  0  0  0  0
   29.4320  -10.8350    6.5060 H   0  0  0  0  0  0  0  0  0  0  0  0
   28.3690   -9.6180    7.2300 H   0  0  0  0  0  0  0  0  0  0  0  0
   28.1180  -12.8520    5.1040 H   0  0  0  0  0  0  0  0  0  0  0  0
   26.3790  -12.6790    5.2400 H   0  0  0  0  0  0  0  0  0  0  0  0
   24.6920   -7.3990    8.0310 H   0  0  0  0  0  0  0  0  0  0  0  0
   25.9620   -6.5940    7.1610 H   0  0  0  0  0  0  0  0  0  0  0  0
   28.6830   -5.8920    4.7310 H   0  0  0  0  0  0  0  0  0  0  0  0
   27.1230   -6.3280    4.0550 H   0  0  0  0  0  0  0  0  0  0  0  0
   29.1890  -11.3200    8.8960 H   0  0  0  0  0  0  0  0  0  0  0  0
   27.4310  -11.2860    8.7770 H   0  0  0  0  0  0  0  0  0  0  0  0
   27.5180  -14.4050    6.7970 H   0  0  0  0  0  0  0  0  0  0  0  0
   26.3700  -13.2950    7.5370 H   0  0  0  0  0  0  0  0  0  0  0  0
   27.3320   -5.4230    6.9450 H   0  0  0  0  0  0  0  0  0  0  0  0
   27.3200   -4.2370    5.6320 H   0  0  0  0  0  0  0  0  0  0  0  0
   25.9350   -5.3100    5.8620 H   0  0  0  0  0  0  0  0  0  0  0  0
   23.8340   -5.5780    6.5930 H   0  0  0  0  0  0  0  0  0  0  0  0
   25.6440   -6.6240    4.6460 H   0  0  0  0  0  0  0  0  0  0  0  0
   24.6650   -5.1770    4.5570 H   0  0  0  0  0  0  0  0  0  0  0  0
   22.2100   -7.3690    6.9450 H   0  0  0  0  0  0  0  0  0  0  0  0
   22.0760   -6.7380    5.3310 H   0  0  0  0  0  0  0  0  0  0  0  0
   23.4180   -6.0290    2.9390 H   0  0  0  0  0  0  0  0  0  0  0  0
   24.4430   -7.4640    2.9170 H   0  0  0  0  0  0  0  0  0  0  0  0
   22.9790   -7.4290    3.9070 H   0  0  0  0  0  0  0  0  0  0  0  0
   22.9140   -8.6360    4.2780 H   0  0  0  0  0  0  0  0  0  0  0  0
   21.9420   -9.3010    5.6090 H   0  0  0  0  0  0  0  0  0  0  0  0
   23.6910   -9.2310    5.7400 H   0  0  0  0  0  0  0  0  0  0  0  0
  1  2  1  0
  2  3  1  0
  1  4  1  0
  1  5  1  0
  4  6  1  0
  4  7  1  0
  5  8  1  0
  5  9  1  0
  6 10  1  0
  7 11  1  0
  8 12  1  0
  9 13  1  0
 11 14  1  0
 12 15  1  0
 13 15  1  0
 10 16  1  0
 16 17  1  0
 16 18  1  0
 17 19  1  0
 18 20  1  0
  1 21  1  6
  2 22  1  6
  2 23  1  0
  3 24  1  0
  4 25  1  6
  6 26  1  6
  6 27  1  0
  7 28  1  1
  7 29  1  0
  8 30  1  6
  8 31  1  0
  9 32  1  6
  9 33  1  0
 10 34  1  1
 10 35  1  0
 11 36  1  6
 11 37  1  0
 12 38  1  1
 12 39  1  0
 13 40  1  6
 13 41  1  0
 14 42  1  1
 14 43  1  0
 14 44  1  0
 16 45  1  1
 17 46  1  1
 17 47  1  0
 18 48  1  1
 18 49  1  0
 19 50  1  6
 19 51  1  0
 19 52  1  0
 20 53  1  6
 20 54  1  0
 20 55  1  0
M  END
