
     RDKit          3D

 53 55  0  0  0  0  0  0  0  0999 V2000
    9.0820    1.5150   21.2150 O   0  0  0  0  0  0  0  0  0  0  0  0
    8.5740    0.4640   21.6150 C   0  0  0  0  0  0  0  0  0  0  0  0
    9.0310   -0.2360   22.8560 C   0  0  1  0  0  0  0  0  0  0  0  0
    7.4790   -0.2640   21.0120 N   0  0  0  0  0  0  0  0  0  0  0  0
   10.5160   -0.3830   23.0960 C   0  0  2  0  0  0  0  0  0  0  0  0
    6.6010    0.3280   20.1250 C   0  0  0  0  0  0  0  0  0  0  0  0
   11.1490   -1.6080   22.3790 C   0  0  1  0  0  0  0  0  0  0  0  0
   10.7000   -0.3130   24.5540 C   0  0  1  0  0  0  0  0  0  0  0  0
    5.4500    1.0210   20.5050 C   0  0  0  0  0  0  0  0  0  0  0  0
    6.9050    0.2330   18.6710 C   0  0  0  0  0  0  0  0  0  0  0  0
    9.3800   -0.7230   25.3310 C   0  0  0  0  0  0  0  0  0  0  0  0
   12.6550   -1.7140   22.5220 C   0  0  1  0  0  0  0  0  0  0  0  0
   12.0120   -1.0260   24.9390 C   0  0  2  0  0  0  0  0  0  0  0  0
    4.6640    1.5910   19.5000 C   0  0  0  0  0  0  0  0  0  0  0  0
    6.1800    0.7670   17.6960 N   0  0  0  0  0  0  0  0  0  0  0  0
    8.6520   -1.6650   24.9310 O   0  0  0  0  0  0  0  0  0  0  0  0
    8.9600    0.0750   26.6040 C   0  0  2  0  0  0  0  0  0  0  0  0
   13.0840   -1.0200   23.8230 C   0  0  1  0  0  0  0  0  0  0  0  0
    5.0960    1.4310   18.0610 C   0  0  0  0  0  0  0  0  0  0  0  0
    7.7100   -0.3130   27.2390 O   0  0  0  0  0  0  0  0  0  0  0  0
    7.1720    0.6250   28.0990 C   0  0  0  0  0  0  0  0  0  0  0  0
    7.5550    1.9650   28.1190 C   0  0  0  0  0  0  0  0  0  0  0  0
    6.1830    0.1990   29.0020 C   0  0  0  0  0  0  0  0  0  0  0  0
    6.9900    2.8790   29.0130 C   0  0  0  0  0  0  0  0  0  0  0  0
    5.6010    1.1110   29.9050 C   0  0  0  0  0  0  0  0  0  0  0  0
    6.0080    2.4730   29.9170 C   0  0  0  0  0  0  0  0  0  0  0  0
    5.4010    3.4600   30.8760 C   0  0  1  0  0  0  0  0  0  0  0  0
    8.6050    0.3450   23.6780 H   0  0  0  0  0  0  0  0  0  0  0  0
    8.5380   -1.2150   22.9230 H   0  0  0  0  0  0  0  0  0  0  0  0
    7.0670   -1.0090   21.5850 H   0  0  0  0  0  0  0  0  0  0  0  0
   10.9860    0.5300   22.6920 H   0  0  0  0  0  0  0  0  0  0  0  0
   10.7110   -2.5320   22.7770 H   0  0  0  0  0  0  0  0  0  0  0  0
   10.9100   -1.5960   21.3100 H   0  0  0  0  0  0  0  0  0  0  0  0
   10.8360    0.7600   24.7690 H   0  0  0  0  0  0  0  0  0  0  0  0
    5.1530    1.1340   21.5450 H   0  0  0  0  0  0  0  0  0  0  0  0
    7.8060   -0.3260   18.4210 H   0  0  0  0  0  0  0  0  0  0  0  0
   12.9020   -2.7340   22.2650 H   0  0  0  0  0  0  0  0  0  0  0  0
   13.0960   -1.1250   21.6940 H   0  0  0  0  0  0  0  0  0  0  0  0
   11.8420   -2.0770   25.2610 H   0  0  0  0  0  0  0  0  0  0  0  0
   12.4410   -0.4870   25.7990 H   0  0  0  0  0  0  0  0  0  0  0  0
    3.7670    2.1350   19.7780 H   0  0  0  0  0  0  0  0  0  0  0  0
    8.9560    1.1400   26.3740 H   0  0  0  0  0  0  0  0  0  0  0  0
    9.7290   -0.0650   27.3700 H   0  0  0  0  0  0  0  0  0  0  0  0
   13.9620   -1.5380   24.2140 H   0  0  0  0  0  0  0  0  0  0  0  0
   13.4020    0.0160   23.6000 H   0  0  0  0  0  0  0  0  0  0  0  0
    4.5310    1.8610   17.2510 H   0  0  0  0  0  0  0  0  0  0  0  0
    8.2970    2.3410   27.4480 H   0  0  0  0  0  0  0  0  0  0  0  0
    5.8620   -0.8440   29.0050 H   0  0  0  0  0  0  0  0  0  0  0  0
    7.3280    3.9230   28.9910 H   0  0  0  0  0  0  0  0  0  0  0  0
    4.8400    0.7600   30.5930 H   0  0  0  0  0  0  0  0  0  0  0  0
    5.9010    3.4290   31.8550 H   0  0  0  0  0  0  0  0  0  0  0  0
    5.4810    4.4770   30.4720 H   0  0  0  0  0  0  0  0  0  0  0  0
    4.3460    3.2340   31.0500 H   0  0  0  0  0  0  0  0  0  0  0  0
  1  2  2  0
  2  3  1  0
  2  4  1  0
  3  5  1  0
  4  6  1  0
  5  7  1  0
  5  8  1  0
  6  9  2  0
  6 10  1  0
  8 11  1  0
  7 12  1  0
  8 13  1  0
  9 14  1  0
 10 15  2  0
 11 16  2  0
 11 17  1  0
 12 18  1  0
 13 18  1  0
 14 19  2  0
 15 19  1  0
 17 20  1  0
 20 21  1  0
 21 22  2  0
 21 23  1  0
 22 24  1  0
 23 25  2  0
 24 26  2  0
 25 26  1  0
 26 27  1  0
  3 28  1  1
  3 29  1  0
  4 30  1  0
  5 31  1  6
  7 32  1  1
  7 33  1  0
  8 34  1  6
  9 35  1  0
 10 36  1  0
 12 37  1  1
 12 38  1  0
 13 39  1  1
 13 40  1  0
 14 41  1  0
 17 42  1  6
 17 43  1  0
 18 44  1  1
 18 45  1  0
 19 46  1  0
 22 47  1  0
 23 48  1  0
 24 49  1  0
 25 50  1  0
 27 51  1  1
 27 52  1  0
 27 53  1  0
M  END
