
     RDKit          3D

 58 61  0  0  0  0  0  0  0  0999 V2000
    8.7590    1.6280   20.9450 O   0  0  0  0  0  0  0  0  0  0  0  0
    8.1000    0.6890   21.3980 C   0  0  0  0  0  0  0  0  0  0  0  0
    8.6540    0.0400   22.6860 C   0  0  2  0  0  0  0  0  0  0  0  0
    6.8470    0.4000   20.6250 N   0  0  0  0  0  0  0  0  0  0  0  0
   10.4670    0.3550   23.0950 S   0  0  0  0  0  0  0  0  0  0  0  0
    6.5240    0.3330   19.1980 C   0  0  0  0  0  0  0  0  0  0  0  0
   10.6870   -1.3770   23.4240 C   0  0  2  0  0  0  0  0  0  0  0  0
    5.6560    1.3500   19.5100 C   0  0  0  0  0  0  0  0  0  0  0  0
    7.4790   -0.6770   19.2530 C   0  0  0  0  0  0  0  0  0  0  0  0
   10.1620    2.1430   23.6010 C   0  0  1  0  0  0  0  0  0  0  0  0
   12.1240   -0.4450   22.8540 C   0  0  1  0  0  0  0  0  0  0  0  0
   11.6780    1.3790   23.8310 C   0  0  2  0  0  0  0  0  0  0  0  0
   11.8140   -2.1740   23.8690 C   0  0  1  0  0  0  0  0  0  0  0  0
   12.6230   -1.3450   21.9460 C   0  0  1  0  0  0  0  0  0  0  0  0
    5.5680    1.7380   20.5860 C   0  0  0  0  0  0  0  0  0  0  0  0
    6.7690   -0.1480   18.4080 N   0  0  0  0  0  0  0  0  0  0  0  0
   10.5300    3.2650   22.7670 C   0  0  1  0  0  0  0  0  0  0  0  0
   12.6990    1.7380   22.8750 C   0  0  2  0  0  0  0  0  0  0  0  0
   13.1790    0.5300   23.1270 C   0  0  2  0  0  0  0  0  0  0  0  0
    9.9090    4.8060   23.5630 S   0  0  2  0  0  0  0  0  0  0  0  0
   12.9940   -2.3560   22.9450 C   0  0  2  0  0  0  0  0  0  0  0  0
    6.0960    0.8550   19.4280 C   0  0  0  0  0  0  0  0  0  0  0  0
   12.9840    3.1290   22.7810 C   0  0  2  0  0  0  0  0  0  0  0  0
   11.8170    3.6730   22.3410 C   0  0  2  0  0  0  0  0  0  0  0  0
    9.1990    4.5890   24.8030 O   0  0  0  0  0  0  0  0  0  0  0  0
    8.9740    5.5280   22.7040 O   0  0  0  0  0  0  0  0  0  0  0  0
   11.2370    5.8620   23.9310 N   0  0  0  0  0  0  0  0  0  0  0  0
    8.3680   -1.0200   22.6560 H   0  0  0  0  0  0  0  0  0  0  0  0
    8.0190    0.4620   23.4760 H   0  0  0  0  0  0  0  0  0  0  0  0
    6.1590   -0.0510   21.2360 H   0  0  0  0  0  0  0  0  0  0  0  0
   10.6220    0.6800   20.9500 H   0  0  0  0  0  0  0  0  0  0  0  0
   10.4610   -1.9710   22.5320 H   0  0  0  0  0  0  0  0  0  0  0  0
    9.9880   -1.7000   24.2020 H   0  0  0  0  0  0  0  0  0  0  0  0
    6.2670    0.9110   20.2920 H   0  0  0  0  0  0  0  0  0  0  0  0
    7.9660   -1.3850   18.5780 H   0  0  0  0  0  0  0  0  0  0  0  0
    9.2060    2.4040   23.9430 H   0  0  0  0  0  0  0  0  0  0  0  0
   10.5320    2.2470   24.6800 H   0  0  0  0  0  0  0  0  0  0  0  0
   12.3170   -0.9510   23.8390 H   0  0  0  0  0  0  0  0  0  0  0  0
   12.3740    1.1120   24.5930 H   0  0  0  0  0  0  0  0  0  0  0  0
   11.2580    2.2410   24.4330 H   0  0  0  0  0  0  0  0  0  0  0  0
   12.1300   -2.3780   24.8960 H   0  0  0  0  0  0  0  0  0  0  0  0
   11.4530   -3.2840   23.8110 H   0  0  0  0  0  0  0  0  0  0  0  0
   11.7650   -1.8790   21.3960 H   0  0  0  0  0  0  0  0  0  0  0  0
   13.3320   -1.1730   21.1190 H   0  0  0  0  0  0  0  0  0  0  0  0
    6.0670    1.4520   21.5030 H   0  0  0  0  0  0  0  0  0  0  0  0
    9.8280    3.2520   21.8650 H   0  0  0  0  0  0  0  0  0  0  0  0
   12.2240    1.6660   21.8970 H   0  0  0  0  0  0  0  0  0  0  0  0
   13.9970    0.3530   22.2910 H   0  0  0  0  0  0  0  0  0  0  0  0
   13.8950    0.2080   23.8060 H   0  0  0  0  0  0  0  0  0  0  0  0
   12.9660   -3.2800   22.3080 H   0  0  0  0  0  0  0  0  0  0  0  0
   13.9650   -2.3380   23.3410 H   0  0  0  0  0  0  0  0  0  0  0  0
    6.7310    0.3750   20.1760 H   0  0  0  0  0  0  0  0  0  0  0  0
   13.8740    3.2560   22.1840 H   0  0  0  0  0  0  0  0  0  0  0  0
   13.3050    3.7370   23.5690 H   0  0  0  0  0  0  0  0  0  0  0  0
   11.9480    4.7940   22.4730 H   0  0  0  0  0  0  0  0  0  0  0  0
   11.8920    3.6230   21.2120 H   0  0  0  0  0  0  0  0  0  0  0  0
   10.9750    6.8490   23.7230 H   0  0  0  0  0  0  0  0  0  0  0  0
   11.9970    5.6380   23.2380 H   0  0  0  0  0  0  0  0  0  0  0  0
  1  2  2  0
  2  3  1  0
  2  4  1  0
  3  5  1  0
  4  6  1  0
  5  7  1  0
  6  8  2  0
  6  9  1  0
  5 10  1  0
  5 11  1  0
  5 12  1  0
  7 13  1  0
 11 14  1  0
  8 15  1  0
  9 16  2  0
 10 17  1  0
 12 18  1  0
 11 19  1  0
 18 19  1  0
 17 20  1  0
 13 21  1  0
 14 21  1  0
 15 22  2  0
 16 22  1  0
 18 23  1  0
 17 24  1  0
 23 24  1  0
 20 25  2  0
 20 26  2  0
 20 27  1  1
  3 28  1  6
  3 29  1  0
  4 30  1  0
  5 31  1  0
  7 32  1  6
  7 33  1  0
  8 34  1  0
  9 35  1  0
 10 36  1  1
 10 37  1  0
 11 38  1  1
 12 39  1  1
 12 40  1  0
 13 41  1  1
 13 42  1  0
 14 43  1  6
 14 44  1  0
 15 45  1  0
 17 46  1  6
 18 47  1  6
 19 48  1  6
 19 49  1  0
 21 50  1  6
 21 51  1  0
 22 52  1  0
 23 53  1  6
 23 54  1  0
 24 55  1  6
 24 56  1  0
 27 57  1  0
 27 58  1  0
M  END
