
     RDKit          3D

 37 38  0  0  0  0  0  0  0  0999 V2000
    9.1450    1.5360   21.2950 O   0  0  0  0  0  0  0  0  0  0  0  0
    8.6720    0.5330   21.8390 C   0  0  0  0  0  0  0  0  0  0  0  0
    9.1790   -0.0390   23.1470 C   0  0  1  0  0  0  0  0  0  0  0  0
    7.5620   -0.2660   21.3530 N   0  0  0  0  0  0  0  0  0  0  0  0
   10.6520   -0.4170   23.1970 C   0  0  2  0  0  0  0  0  0  0  0  0
    6.7420    0.1580   20.3190 C   0  0  0  0  0  0  0  0  0  0  0  0
   11.0550   -1.5850   22.2710 C   0  0  1  0  0  0  0  0  0  0  0  0
   11.1130   -0.7170   24.6040 C   0  0  2  0  0  0  0  0  0  0  0  0
    5.5760    0.8730   20.6070 C   0  0  0  0  0  0  0  0  0  0  0  0
    7.0580   -0.1100   18.8860 C   0  0  0  0  0  0  0  0  0  0  0  0
    5.1600    1.1830   22.0140 C   0  0  1  0  0  0  0  0  0  0  0  0
   12.5230   -1.9580   22.4500 C   0  0  1  0  0  0  0  0  0  0  0  0
   12.5680   -0.4150   24.6150 C   0  0  2  0  0  0  0  0  0  0  0  0
    4.7080    1.3480   19.4470 C   0  0  0  0  0  0  0  0  0  0  0  0
    6.3150    0.2960   17.8460 N   0  0  0  0  0  0  0  0  0  0  0  0
   13.2890   -1.1330   23.4920 C   0  0  1  0  0  0  0  0  0  0  0  0
    5.2020    0.9910   18.0690 C   0  0  0  0  0  0  0  0  0  0  0  0
    8.9800    0.6990   23.9330 H   0  0  0  0  0  0  0  0  0  0  0  0
    8.5800   -0.9290   23.3790 H   0  0  0  0  0  0  0  0  0  0  0  0
    7.1670   -0.9320   22.0020 H   0  0  0  0  0  0  0  0  0  0  0  0
   11.2100    0.4710   22.8570 H   0  0  0  0  0  0  0  0  0  0  0  0
   10.4410   -2.4680   22.4900 H   0  0  0  0  0  0  0  0  0  0  0  0
   10.8940   -1.3080   21.2310 H   0  0  0  0  0  0  0  0  0  0  0  0
   10.9990   -1.7760   24.8730 H   0  0  0  0  0  0  0  0  0  0  0  0
   10.5770   -0.1340   25.3630 H   0  0  0  0  0  0  0  0  0  0  0  0
    7.9340   -0.6640   18.5780 H   0  0  0  0  0  0  0  0  0  0  0  0
    5.9060    1.8040   22.5250 H   0  0  0  0  0  0  0  0  0  0  0  0
    4.1940    1.7080   22.0120 H   0  0  0  0  0  0  0  0  0  0  0  0
    5.0640    0.2540   22.5880 H   0  0  0  0  0  0  0  0  0  0  0  0
   12.5860   -3.0020   22.7800 H   0  0  0  0  0  0  0  0  0  0  0  0
   13.0410   -1.8950   21.4880 H   0  0  0  0  0  0  0  0  0  0  0  0
   13.0060   -0.7040   25.5760 H   0  0  0  0  0  0  0  0  0  0  0  0
   12.7180    0.6570   24.4900 H   0  0  0  0  0  0  0  0  0  0  0  0
    3.7900    1.9110   19.5790 H   0  0  0  0  0  0  0  0  0  0  0  0
   14.0140   -1.8080   23.9490 H   0  0  0  0  0  0  0  0  0  0  0  0
   13.8550   -0.3670   22.9550 H   0  0  0  0  0  0  0  0  0  0  0  0
    4.6590    1.2880   17.1860 H   0  0  0  0  0  0  0  0  0  0  0  0
  1  2  2  0
  2  3  1  0
  2  4  1  0
  3  5  1  0
  4  6  1  0
  5  7  1  0
  5  8  1  0
  6  9  2  0
  6 10  1  0
  9 11  1  0
  7 12  1  0
  8 13  1  0
  9 14  1  0
 10 15  2  0
 12 16  1  0
 13 16  1  0
 14 17  2  0
 15 17  1  0
  3 18  1  1
  3 19  1  0
  4 20  1  0
  5 21  1  6
  7 22  1  1
  7 23  1  0
  8 24  1  1
  8 25  1  0
 10 26  1  0
 11 27  1  1
 11 28  1  0
 11 29  1  0
 12 30  1  1
 12 31  1  0
 13 32  1  1
 13 33  1  0
 14 34  1  0
 16 35  1  1
 16 36  1  0
 17 37  1  0
M  END
