
     RDKit          3D

 53 55  0  0  0  0  0  0  0  0999 V2000
    9.1360    1.2270   21.4090 O   0  0  0  0  0  0  0  0  0  0  0  0
    8.5500    0.2190   21.8370 C   0  0  0  0  0  0  0  0  0  0  0  0
    8.9320   -0.5250   23.1180 C   0  0  1  0  0  0  0  0  0  0  0  0
    7.4670   -0.3870   21.2390 N   0  0  0  0  0  0  0  0  0  0  0  0
   10.4370   -0.7500   23.2880 C   0  0  2  0  0  0  0  0  0  0  0  0
    6.6430    0.2050   20.2820 C   0  0  0  0  0  0  0  0  0  0  0  0
   11.0650   -1.4980   22.1330 C   0  0  1  0  0  0  0  0  0  0  0  0
   10.9410   -1.2110   24.5230 C   0  0  2  0  0  0  0  0  0  0  0  0
    5.5130    0.9660   20.5530 C   0  0  0  0  0  0  0  0  0  0  0  0
    6.9740    0.0310   18.8510 C   0  0  0  0  0  0  0  0  0  0  0  0
   12.4020   -1.3080   22.2870 C   0  0  1  0  0  0  0  0  0  0  0  0
   12.3190   -0.9850   24.5470 C   0  0  1  0  0  0  0  0  0  0  0  0
    4.7850    1.5080   19.5070 C   0  0  0  0  0  0  0  0  0  0  0  0
    6.2510    0.5740   17.8660 N   0  0  0  0  0  0  0  0  0  0  0  0
   13.1090   -2.2800   24.8480 C   0  0  1  0  0  0  0  0  0  0  0  0
   12.6580   -0.4380   23.3440 C   0  0  1  0  0  0  0  0  0  0  0  0
    5.1820    1.2950   18.1970 C   0  0  0  0  0  0  0  0  0  0  0  0
   14.0090   -0.2630   23.2500 O   0  0  0  0  0  0  0  0  0  0  0  0
   12.0970    1.0140   23.3780 C   0  0  0  0  0  0  0  0  0  0  0  0
   12.7850    2.1410   22.9430 C   0  0  0  0  0  0  0  0  0  0  0  0
   10.8250    1.2880   23.8870 C   0  0  0  0  0  0  0  0  0  0  0  0
   12.2630    3.4140   23.0020 C   0  0  0  0  0  0  0  0  0  0  0  0
   10.3290    2.5570   23.9390 C   0  0  0  0  0  0  0  0  0  0  0  0
   11.0040    3.7020   23.5110 C   0  0  0  0  0  0  0  0  0  0  0  0
   10.3140    5.3300   23.6290 S   0  0  2  0  0  0  0  0  0  0  0  0
   11.2020    6.2720   22.9930 O   0  0  0  0  0  0  0  0  0  0  0  0
    9.8140    5.5640   24.9640 O   0  0  0  0  0  0  0  0  0  0  0  0
    8.9420    5.2150   22.6700 N   0  0  0  0  0  0  0  0  0  0  0  0
    8.5690    0.0720   23.9620 H   0  0  0  0  0  0  0  0  0  0  0  0
    8.4350   -1.5020   23.0790 H   0  0  0  0  0  0  0  0  0  0  0  0
    7.2100   -1.3150   21.5560 H   0  0  0  0  0  0  0  0  0  0  0  0
   10.8250    0.2490   23.1830 H   0  0  0  0  0  0  0  0  0  0  0  0
   10.8210   -2.5810   22.1720 H   0  0  0  0  0  0  0  0  0  0  0  0
   10.7160   -1.1320   21.1740 H   0  0  0  0  0  0  0  0  0  0  0  0
   10.7710   -2.2400   24.8050 H   0  0  0  0  0  0  0  0  0  0  0  0
   10.4800   -0.6100   25.3120 H   0  0  0  0  0  0  0  0  0  0  0  0
    5.1730    1.1580   21.5670 H   0  0  0  0  0  0  0  0  0  0  0  0
    7.8290   -0.5490   18.5100 H   0  0  0  0  0  0  0  0  0  0  0  0
   12.8420   -2.2880   22.5060 H   0  0  0  0  0  0  0  0  0  0  0  0
   12.8560   -1.0300   21.3450 H   0  0  0  0  0  0  0  0  0  0  0  0
   12.5770   -0.2770   25.3480 H   0  0  0  0  0  0  0  0  0  0  0  0
    3.9030    2.1050   19.7120 H   0  0  0  0  0  0  0  0  0  0  0  0
   12.4530   -3.1480   24.9620 H   0  0  0  0  0  0  0  0  0  0  0  0
   13.8230   -2.4930   24.0410 H   0  0  0  0  0  0  0  0  0  0  0  0
   13.6610   -2.1750   25.7790 H   0  0  0  0  0  0  0  0  0  0  0  0
    4.6310    1.7140   17.3650 H   0  0  0  0  0  0  0  0  0  0  0  0
   14.3980   -0.7680   23.9760 H   0  0  0  0  0  0  0  0  0  0  0  0
   13.7800    2.0130   22.5490 H   0  0  0  0  0  0  0  0  0  0  0  0
   10.1980    0.4900   24.2610 H   0  0  0  0  0  0  0  0  0  0  0  0
   12.8780    4.2290   22.6390 H   0  0  0  0  0  0  0  0  0  0  0  0
    9.3310    2.7830   24.3390 H   0  0  0  0  0  0  0  0  0  0  0  0
    8.3170    5.9900   22.8680 H   0  0  0  0  0  0  0  0  0  0  0  0
    9.2230    5.1570   21.6840 H   0  0  0  0  0  0  0  0  0  0  0  0
  1  2  2  0
  2  3  1  0
  2  4  1  0
  3  5  1  0
  4  6  1  0
  5  7  1  0
  5  8  1  0
  6  9  2  0
  6 10  1  0
  7 11  1  0
  8 12  1  0
  9 13  1  0
 10 14  2  0
 12 15  1  0
 11 16  1  0
 12 16  1  0
 13 17  2  0
 14 17  1  0
 16 18  1  1
 16 19  1  0
 19 20  2  0
 19 21  1  0
 20 22  1  0
 21 23  2  0
 22 24  2  0
 23 24  1  0
 24 25  1  0
 25 26  2  0
 25 27  2  0
 25 28  1  6
  3 29  1  1
  3 30  1  0
  4 31  1  0
  5 32  1  6
  7 33  1  1
  7 34  1  0
  8 35  1  1
  8 36  1  0
  9 37  1  0
 10 38  1  0
 11 39  1  1
 11 40  1  0
 12 41  1  1
 13 42  1  0
 15 43  1  1
 15 44  1  0
 15 45  1  0
 17 46  1  0
 18 47  1  0
 20 48  1  0
 21 49  1  0
 22 50  1  0
 23 51  1  0
 28 52  1  0
 28 53  1  0
M  END
