
     RDKit          3D

 54 56  0  0  0  0  0  0  0  0999 V2000
    9.1470    1.5490   21.2880 O   0  0  0  0  0  0  0  0  0  0  0  0
    8.5620    0.6050   21.8290 C   0  0  0  0  0  0  0  0  0  0  0  0
    9.1090   -0.1790   23.0230 C   0  0  1  0  0  0  0  0  0  0  0  0
    7.3230    0.1110   21.4780 N   0  0  0  0  0  0  0  0  0  0  0  0
   10.6160   -0.4170   23.1000 C   0  0  2  0  0  0  0  0  0  0  0  0
    6.6260    0.4160   20.3030 C   0  0  0  0  0  0  0  0  0  0  0  0
   11.0920   -1.6180   22.2810 C   0  0  1  0  0  0  0  0  0  0  0  0
   11.0820   -0.5640   24.5350 C   0  0  2  0  0  0  0  0  0  0  0  0
    5.5500    1.3420   20.2830 C   0  0  0  0  0  0  0  0  0  0  0  0
    6.9650   -0.1740   19.1100 C   0  0  0  0  0  0  0  0  0  0  0  0
    4.9940    2.1280   21.4620 C   0  0  2  0  0  0  0  0  0  0  0  0
   12.3670   -2.2350   22.8490 C   0  0  1  0  0  0  0  0  0  0  0  0
   12.5740   -0.3710   24.5690 C   0  0  2  0  0  0  0  0  0  0  0  0
    4.9130    1.5960   19.0660 C   0  0  0  0  0  0  0  0  0  0  0  0
    6.3470    0.0760   17.9480 N   0  0  0  0  0  0  0  0  0  0  0  0
    4.0290    1.3480   22.3620 C   0  0  2  0  0  0  0  0  0  0  0  0
   13.2710   -1.2360   23.5400 C   0  0  1  0  0  0  0  0  0  0  0  0
    5.3430    0.9490   17.9480 C   0  0  0  0  0  0  0  0  0  0  0  0
    3.1590    2.2200   23.1460 N   0  0  0  0  0  0  0  0  0  0  0  0
    2.1470    1.6660   23.9040 C   0  0  0  0  0  0  0  0  0  0  0  0
    2.0730    0.4470   24.0370 O   0  0  0  0  0  0  0  0  0  0  0  0
    1.1490    2.5530   24.5800 C   0  0  0  0  0  0  0  0  0  0  0  0
    1.4670    3.7830   25.1900 C   0  0  0  0  0  0  0  0  0  0  0  0
   -0.1880    2.1080   24.6000 C   0  0  0  0  0  0  0  0  0  0  0  0
    2.7230    4.2620   25.2060 F   0  0  0  0  0  0  0  0  0  0  0  0
   -1.1800    2.8780   25.2200 C   0  0  0  0  0  0  0  0  0  0  0  0
    0.4780    4.5530   25.8090 C   0  0  0  0  0  0  0  0  0  0  0  0
   -0.8480    4.0950   25.8220 C   0  0  0  0  0  0  0  0  0  0  0  0
    8.7920    0.3470   23.9380 H   0  0  0  0  0  0  0  0  0  0  0  0
    8.6100   -1.1620   23.0330 H   0  0  0  0  0  0  0  0  0  0  0  0
    6.9820   -0.6750   22.0050 H   0  0  0  0  0  0  0  0  0  0  0  0
   11.1020    0.4780   22.6890 H   0  0  0  0  0  0  0  0  0  0  0  0
   10.3110   -2.3830   22.2690 H   0  0  0  0  0  0  0  0  0  0  0  0
   11.2640   -1.3590   21.2440 H   0  0  0  0  0  0  0  0  0  0  0  0
   10.8390   -1.5640   24.9040 H   0  0  0  0  0  0  0  0  0  0  0  0
   10.5930    0.1550   25.1980 H   0  0  0  0  0  0  0  0  0  0  0  0
    7.7700   -0.8980   19.0170 H   0  0  0  0  0  0  0  0  0  0  0  0
    4.5300    3.0610   21.1210 H   0  0  0  0  0  0  0  0  0  0  0  0
    5.8440    2.4580   22.0780 H   0  0  0  0  0  0  0  0  0  0  0  0
   12.0980   -3.0190   23.5630 H   0  0  0  0  0  0  0  0  0  0  0  0
   12.9210   -2.7260   22.0420 H   0  0  0  0  0  0  0  0  0  0  0  0
   12.9570   -0.5920   25.5730 H   0  0  0  0  0  0  0  0  0  0  0  0
   12.7880    0.6740   24.3570 H   0  0  0  0  0  0  0  0  0  0  0  0
    4.0890    2.2970   18.9880 H   0  0  0  0  0  0  0  0  0  0  0  0
    4.6070    0.7210   23.0590 H   0  0  0  0  0  0  0  0  0  0  0  0
    3.3800    0.6850   21.7720 H   0  0  0  0  0  0  0  0  0  0  0  0
   14.0610   -1.7960   24.0410 H   0  0  0  0  0  0  0  0  0  0  0  0
   13.7420   -0.5950   22.7840 H   0  0  0  0  0  0  0  0  0  0  0  0
    4.8730    1.1280   16.9980 H   0  0  0  0  0  0  0  0  0  0  0  0
    3.5070    3.1480   23.3670 H   0  0  0  0  0  0  0  0  0  0  0  0
   -0.4600    1.1640   24.1350 H   0  0  0  0  0  0  0  0  0  0  0  0
   -2.2040    2.5240   25.2290 H   0  0  0  0  0  0  0  0  0  0  0  0
    0.7490    5.5010   26.2760 H   0  0  0  0  0  0  0  0  0  0  0  0
   -1.6190    4.6950   26.3050 H   0  0  0  0  0  0  0  0  0  0  0  0
  1  2  2  0
  2  3  1  0
  2  4  1  0
  3  5  1  0
  4  6  1  0
  5  7  1  0
  5  8  1  0
  6  9  1  0
  6 10  2  0
  9 11  1  0
  7 12  1  0
  8 13  1  0
  9 14  2  0
 10 15  1  0
 11 16  1  0
 12 17  1  0
 13 17  1  0
 14 18  1  0
 15 18  2  0
 16 19  1  0
 19 20  1  0
 20 21  2  0
 20 22  1  0
 22 23  2  0
 22 24  1  0
 23 25  1  0
 24 26  2  0
 23 27  1  0
 26 28  1  0
 27 28  2  0
  3 29  1  1
  3 30  1  0
  4 31  1  0
  5 32  1  6
  7 33  1  6
  7 34  1  0
  8 35  1  1
  8 36  1  0
 10 37  1  0
 11 38  1  6
 11 39  1  0
 12 40  1  1
 12 41  1  0
 13 42  1  1
 13 43  1  0
 14 44  1  0
 16 45  1  1
 16 46  1  0
 17 47  1  1
 17 48  1  0
 18 49  1  0
 19 50  1  0
 24 51  1  0
 26 52  1  0
 27 53  1  0
 28 54  1  0
M  END
