
     RDKit          3D

 73 76  0  0  0  0  0  0  0  0999 V2000
    9.6580    0.8650   21.6560 N   0  0  0  0  0  0  0  0  0  0  0  0
    8.7460    0.5630   22.6900 C   0  0  2  0  0  0  0  0  0  0  0  0
    9.0290   -0.7440   23.3720 C   0  0  0  0  0  0  0  0  0  0  0  0
    7.4560    0.4510   22.1130 O   0  0  0  0  0  0  0  0  0  0  0  0
    8.2860   -0.9390   24.5040 C   0  0  0  0  0  0  0  0  0  0  0  0
    9.9290   -1.6510   22.9020 N   0  0  0  0  0  0  0  0  0  0  0  0
    7.2650   -0.6410   21.1990 C   0  0  2  0  0  0  0  0  0  0  0  0
    8.4320   -2.1050   25.2090 C   0  0  0  0  0  0  0  0  0  0  0  0
   10.0430   -2.7980   23.6370 C   0  0  0  0  0  0  0  0  0  0  0  0
    6.4180   -0.0600   20.1130 C   0  0  0  0  0  0  0  0  0  0  0  0
    9.3160   -3.0950   24.8140 C   0  0  0  0  0  0  0  0  0  0  0  0
    6.8730   -0.0360   18.8130 C   0  0  0  0  0  0  0  0  0  0  0  0
    5.1480    0.4940   20.3490 C   0  0  0  0  0  0  0  0  0  0  0  0
    9.4090   -4.2620   25.5770 N   0  0  0  0  0  0  0  0  0  0  0  0
    4.5290    0.5130   21.7210 C   0  0  2  0  0  0  0  0  0  0  0  0
    6.2560    0.4750   17.7480 N   0  0  0  0  0  0  0  0  0  0  0  0
    4.4560    1.0470   19.2650 C   0  0  0  0  0  0  0  0  0  0  0  0
    9.4100   -5.5150   24.8820 C   0  0  2  0  0  0  0  0  0  0  0  0
    8.6240   -4.3810   26.8170 C   0  0  1  0  0  0  0  0  0  0  0  0
    5.0320    1.6670   22.5780 C   0  0  2  0  0  0  0  0  0  0  0  0
    5.0670    1.0040   18.0340 C   0  0  0  0  0  0  0  0  0  0  0  0
    8.3550   -5.5970   23.7670 C   0  0  2  0  0  0  0  0  0  0  0  0
    7.1260   -4.5190   26.5020 C   0  0  2  0  0  0  0  0  0  0  0  0
    3.9920    2.6440   22.7880 N   0  0  0  0  0  0  0  0  0  0  0  0
    6.8160   -5.5910   25.6120 O   0  0  0  0  0  0  0  0  0  0  0  0
    6.9600   -5.2560   24.2320 C   0  0  2  0  0  0  0  0  0  0  0  0
    2.8350    2.3450   23.4480 C   0  0  0  0  0  0  0  0  0  0  0  0
    2.7200    1.4100   24.2270 O   0  0  0  0  0  0  0  0  0  0  0  0
    1.8410    3.2340   23.1150 N   0  0  0  0  0  0  0  0  0  0  0  0
    0.5910    3.3650   23.8530 C   0  0  1  0  0  0  0  0  0  0  0  0
    0.4550    4.7660   24.4830 C   0  0  1  0  0  0  0  0  0  0  0  0
   -0.6260    2.9130   23.0230 C   0  0  2  0  0  0  0  0  0  0  0  0
   -0.8810    4.9980   25.1800 C   0  0  1  0  0  0  0  0  0  0  0  0
   -1.9420    3.1690   23.7540 C   0  0  2  0  0  0  0  0  0  0  0  0
   -2.0520    4.5960   24.2910 C   0  0  1  0  0  0  0  0  0  0  0  0
   10.5320    1.2780   21.9450 H   0  0  0  0  0  0  0  0  0  0  0  0
    9.9080   -0.0250   21.2210 H   0  0  0  0  0  0  0  0  0  0  0  0
    8.7580    1.3840   23.4210 H   0  0  0  0  0  0  0  0  0  0  0  0
    7.5800   -0.1880   24.8470 H   0  0  0  0  0  0  0  0  0  0  0  0
    6.7690   -1.4930   21.6750 H   0  0  0  0  0  0  0  0  0  0  0  0
    8.2330   -0.9770   20.8010 H   0  0  0  0  0  0  0  0  0  0  0  0
    7.8260   -2.2360   26.1000 H   0  0  0  0  0  0  0  0  0  0  0  0
   10.7670   -3.4930   23.2290 H   0  0  0  0  0  0  0  0  0  0  0  0
    7.8580   -0.4950   18.6810 H   0  0  0  0  0  0  0  0  0  0  0  0
    4.7410   -0.4370   22.2200 H   0  0  0  0  0  0  0  0  0  0  0  0
    3.4360    0.5580   21.6460 H   0  0  0  0  0  0  0  0  0  0  0  0
    3.4720    1.4990   19.3730 H   0  0  0  0  0  0  0  0  0  0  0  0
    9.1840   -6.3040   25.6080 H   0  0  0  0  0  0  0  0  0  0  0  0
   10.4020   -5.7140   24.5070 H   0  0  0  0  0  0  0  0  0  0  0  0
    8.9700   -5.2640   27.3730 H   0  0  0  0  0  0  0  0  0  0  0  0
    8.7720   -3.5550   27.4930 H   0  0  0  0  0  0  0  0  0  0  0  0
    5.9080    2.1300   22.1090 H   0  0  0  0  0  0  0  0  0  0  0  0
    5.3310    1.2910   23.5650 H   0  0  0  0  0  0  0  0  0  0  0  0
    4.4730    1.4620   17.2530 H   0  0  0  0  0  0  0  0  0  0  0  0
    8.3440   -6.6240   23.3790 H   0  0  0  0  0  0  0  0  0  0  0  0
    8.6400   -4.9410   22.9320 H   0  0  0  0  0  0  0  0  0  0  0  0
    6.7880   -3.6060   26.0030 H   0  0  0  0  0  0  0  0  0  0  0  0
    6.5320   -4.6240   27.4190 H   0  0  0  0  0  0  0  0  0  0  0  0
    3.9820    3.4440   22.1630 H   0  0  0  0  0  0  0  0  0  0  0  0
    6.2440   -5.8850   23.6920 H   0  0  0  0  0  0  0  0  0  0  0  0
    6.6830   -4.2120   24.0430 H   0  0  0  0  0  0  0  0  0  0  0  0
    1.7570    3.3930   22.1140 H   0  0  0  0  0  0  0  0  0  0  0  0
    0.6990    2.6500   24.6800 H   0  0  0  0  0  0  0  0  0  0  0  0
    1.2490    4.8860   25.2310 H   0  0  0  0  0  0  0  0  0  0  0  0
    0.6240    5.5540   23.7390 H   0  0  0  0  0  0  0  0  0  0  0  0
   -0.5330    1.8430   22.7970 H   0  0  0  0  0  0  0  0  0  0  0  0
   -0.6610    3.4180   22.0500 H   0  0  0  0  0  0  0  0  0  0  0  0
   -0.9170    4.4300   26.1160 H   0  0  0  0  0  0  0  0  0  0  0  0
   -0.9770    6.0550   25.4550 H   0  0  0  0  0  0  0  0  0  0  0  0
   -2.0600    2.4550   24.5760 H   0  0  0  0  0  0  0  0  0  0  0  0
   -2.7750    2.9810   23.0650 H   0  0  0  0  0  0  0  0  0  0  0  0
   -2.9850    4.7120   24.8550 H   0  0  0  0  0  0  0  0  0  0  0  0
   -2.1190    5.2840   23.4400 H   0  0  0  0  0  0  0  0  0  0  0  0
  1  2  1  0
  2  3  1  0
  2  4  1  0
  3  5  2  0
  3  6  1  0
  4  7  1  0
  5  8  1  0
  6  9  2  0
  7 10  1  0
  8 11  2  0
  9 11  1  0
 10 12  2  0
 10 13  1  0
 11 14  1  0
 13 15  1  0
 12 16  1  0
 13 17  2  0
 14 18  1  0
 14 19  1  0
 15 20  1  0
 16 21  2  0
 17 21  1  0
 18 22  1  0
 19 23  1  0
 20 24  1  0
 23 25  1  0
 22 26  1  0
 25 26  1  0
 24 27  1  0
 27 28  2  0
 27 29  1  0
 29 30  1  0
 30 31  1  0
 30 32  1  0
 31 33  1  0
 32 34  1  0
 33 35  1  0
 34 35  1  0
  1 36  1  0
  1 37  1  0
  2 38  1  1
  5 39  1  0
  7 40  1  1
  7 41  1  0
  8 42  1  0
  9 43  1  0
 12 44  1  0
 15 45  1  1
 15 46  1  0
 17 47  1  0
 18 48  1  1
 18 49  1  0
 19 50  1  1
 19 51  1  0
 20 52  1  6
 20 53  1  0
 21 54  1  0
 22 55  1  6
 22 56  1  0
 23 57  1  6
 23 58  1  0
 24 59  1  0
 26 60  1  6
 26 61  1  0
 29 62  1  0
 30 63  1  1
 31 64  1  1
 31 65  1  0
 32 66  1  6
 32 67  1  0
 33 68  1  1
 33 69  1  0
 34 70  1  1
 34 71  1  0
 35 72  1  1
 35 73  1  0
M  END
