
     RDKit          3D

 55 57  0  0  0  0  0  0  0  0999 V2000
    9.5260    1.7330   21.8710 N   0  0  0  0  0  0  0  0  0  0  0  0
    9.5420    0.7340   22.4620 C   0  0  0  0  0  0  0  0  0  0  0  0
    9.4510   -0.5340   23.2950 C   0  0  0  0  0  0  0  0  0  0  0  0
    8.2890   -0.7890   24.0360 C   0  0  0  0  0  0  0  0  0  0  0  0
   10.5010   -1.3790   23.2980 N   0  0  0  0  0  0  0  0  0  0  0  0
    8.1900   -1.9530   24.8010 C   0  0  0  0  0  0  0  0  0  0  0  0
   10.3490   -2.5010   24.0710 C   0  0  0  0  0  0  0  0  0  0  0  0
    9.2430   -2.8560   24.8280 C   0  0  0  0  0  0  0  0  0  0  0  0
    9.1930   -4.0590   25.5780 N   0  0  0  0  0  0  0  0  0  0  0  0
    9.5090   -5.3410   24.9270 C   0  0  2  0  0  0  0  0  0  0  0  0
    8.2760   -4.2930   26.7200 C   0  0  1  0  0  0  0  0  0  0  0  0
    8.7470   -5.5040   23.8470 C   0  0  2  0  0  0  0  0  0  0  0  0
    6.9770   -4.5000   26.3580 C   0  0  2  0  0  0  0  0  0  0  0  0
    6.8170   -5.5470   25.3890 O   0  0  0  0  0  0  0  0  0  0  0  0
    7.2670   -5.2420   24.0750 C   0  0  2  0  0  0  0  0  0  0  0  0
    6.4060   -5.8330   22.9320 C   0  0  2  0  0  0  0  0  0  0  0  0
    5.4470   -4.7910   22.3480 C   0  0  2  0  0  0  0  0  0  0  0  0
    6.1450   -3.6240   21.8210 N   0  0  0  0  0  0  0  0  0  0  0  0
    6.1550   -3.3650   20.4800 C   0  0  0  0  0  0  0  0  0  0  0  0
    7.0780   -2.2930   20.0280 N   0  0  0  0  0  0  0  0  0  0  0  0
    5.4270   -4.0110   19.7180 O   0  0  0  0  0  0  0  0  0  0  0  0
    7.9460   -1.4980   20.8870 C   0  0  1  0  0  0  0  0  0  0  0  0
    6.9260   -1.7970   18.6670 C   0  0  1  0  0  0  0  0  0  0  0  0
    6.1350   -0.5230   18.6360 C   0  0  0  0  0  0  0  0  0  0  0  0
    4.9930   -0.0790   19.5300 C   0  0  0  0  0  0  0  0  0  0  0  0
    6.3740    0.4290   17.7370 N   0  0  0  0  0  0  0  0  0  0  0  0
    5.4840    1.4540   17.9740 O   0  0  0  0  0  0  0  0  0  0  0  0
    4.6740    1.1550   19.0240 C   0  0  0  0  0  0  0  0  0  0  0  0
    3.6730    2.1640   19.3810 C   0  0  1  0  0  0  0  0  0  0  0  0
    7.4590   -0.0850   24.0200 H   0  0  0  0  0  0  0  0  0  0  0  0
    7.2750   -2.1150   25.3560 H   0  0  0  0  0  0  0  0  0  0  0  0
   11.2220   -3.1270   24.0410 H   0  0  0  0  0  0  0  0  0  0  0  0
    9.3500   -6.1660   25.6300 H   0  0  0  0  0  0  0  0  0  0  0  0
   10.5610   -5.4010   24.6770 H   0  0  0  0  0  0  0  0  0  0  0  0
    8.6330   -5.1190   27.3470 H   0  0  0  0  0  0  0  0  0  0  0  0
    8.3200   -3.4220   27.3760 H   0  0  0  0  0  0  0  0  0  0  0  0
    8.8740   -6.5150   23.4460 H   0  0  0  0  0  0  0  0  0  0  0  0
    9.0640   -4.8230   23.0790 H   0  0  0  0  0  0  0  0  0  0  0  0
    6.6140   -3.5890   25.8830 H   0  0  0  0  0  0  0  0  0  0  0  0
    6.3400   -4.6800   27.2290 H   0  0  0  0  0  0  0  0  0  0  0  0
    7.1500   -4.1560   24.0060 H   0  0  0  0  0  0  0  0  0  0  0  0
    5.8420   -6.7020   23.2990 H   0  0  0  0  0  0  0  0  0  0  0  0
    7.0570   -6.2040   22.1260 H   0  0  0  0  0  0  0  0  0  0  0  0
    4.7200   -4.4680   23.1050 H   0  0  0  0  0  0  0  0  0  0  0  0
    4.8940   -5.2150   21.5050 H   0  0  0  0  0  0  0  0  0  0  0  0
    6.1550   -2.8220   22.4270 H   0  0  0  0  0  0  0  0  0  0  0  0
    7.5380   -1.3570   21.8850 H   0  0  0  0  0  0  0  0  0  0  0  0
    8.9160   -1.9830   20.9990 H   0  0  0  0  0  0  0  0  0  0  0  0
    8.0890   -0.5210   20.4180 H   0  0  0  0  0  0  0  0  0  0  0  0
    7.9130   -1.6180   18.2280 H   0  0  0  0  0  0  0  0  0  0  0  0
    6.4370   -2.5750   18.0670 H   0  0  0  0  0  0  0  0  0  0  0  0
    4.5460   -0.6080   20.3560 H   0  0  0  0  0  0  0  0  0  0  0  0
    4.0750    2.8020   20.1720 H   0  0  0  0  0  0  0  0  0  0  0  0
    3.4230    2.7700   18.5050 H   0  0  0  0  0  0  0  0  0  0  0  0
    2.7670    1.6750   19.7440 H   0  0  0  0  0  0  0  0  0  0  0  0
  1  2  3  0
  2  3  1  0
  3  4  2  0
  3  5  1  0
  4  6  1  0
  5  7  2  0
  6  8  2  0
  7  8  1  0
  8  9  1  0
  9 10  1  0
  9 11  1  0
 10 12  1  0
 11 13  1  0
 13 14  1  0
 12 15  1  0
 14 15  1  0
 15 16  1  0
 16 17  1  0
 17 18  1  0
 18 19  1  0
 19 20  1  0
 19 21  2  0
 20 22  1  0
 20 23  1  0
 23 24  1  0
 24 25  1  0
 24 26  2  0
 26 27  1  0
 25 28  2  0
 27 28  1  0
 28 29  1  0
  4 30  1  0
  6 31  1  0
  7 32  1  0
 10 33  1  1
 10 34  1  0
 11 35  1  1
 11 36  1  0
 12 37  1  6
 12 38  1  0
 13 39  1  6
 13 40  1  0
 15 41  1  6
 16 42  1  1
 16 43  1  0
 17 44  1  1
 17 45  1  0
 18 46  1  0
 22 47  1  1
 22 48  1  0
 22 49  1  0
 23 50  1  6
 23 51  1  0
 25 52  1  0
 29 53  1  1
 29 54  1  0
 29 55  1  0
M  END
