
     RDKit          3D

 60 63  0  0  0  0  0  0  0  0999 V2000
    9.2070    1.9160   21.4710 N   0  0  0  0  0  0  0  0  0  0  0  0
    8.5730    0.7710   22.0650 C   0  0  1  0  0  0  0  0  0  0  0  0
    7.8480   -0.0850   21.1730 N   0  0  0  0  0  0  0  0  0  0  0  0
    9.7000   -0.1390   23.0810 S   0  0  2  0  0  0  0  0  0  0  0  0
    8.7100   -0.4650   24.4850 C   0  0  1  0  0  0  0  0  0  0  0  0
   11.0150    0.9250   23.5520 C   0  0  2  0  0  0  0  0  0  0  0  0
    6.9310    0.3410   20.2420 C   0  0  0  0  0  0  0  0  0  0  0  0
   10.4520   -1.8130   22.2750 S   0  0  2  0  0  0  0  0  0  0  0  0
    9.1760   -1.6720   25.2560 C   0  0  1  0  0  0  0  0  0  0  0  0
    9.9550   -3.2050   23.2460 C   0  0  2  0  0  0  0  0  0  0  0  0
   12.2330   -1.8030   22.2820 C   0  0  2  0  0  0  0  0  0  0  0  0
   12.2360    0.1890   24.0150 C   0  0  2  0  0  0  0  0  0  0  0  0
    5.8780    1.2160   20.5030 C   0  0  0  0  0  0  0  0  0  0  0  0
    7.0180   -0.1010   18.9340 C   0  0  0  0  0  0  0  0  0  0  0  0
    9.0140   -2.9930   24.4720 C   0  0  1  0  0  0  0  0  0  0  0  0
   12.9600   -0.6360   22.9530 C   0  0  1  0  0  0  0  0  0  0  0  0
    4.9970    1.6030   19.4920 C   0  0  0  0  0  0  0  0  0  0  0  0
    6.1820    0.2590   17.9520 N   0  0  0  0  0  0  0  0  0  0  0  0
    9.2030   -4.1470   25.3890 N   0  0  0  0  0  0  0  0  0  0  0  0
    5.1960    1.0970   18.2370 C   0  0  0  0  0  0  0  0  0  0  0  0
    9.4290   -5.4410   24.7540 C   0  0  2  0  0  0  0  0  0  0  0  0
    8.2390   -4.2580   26.5090 C   0  0  1  0  0  0  0  0  0  0  0  0
    8.4800   -5.7030   23.5950 C   0  0  2  0  0  0  0  0  0  0  0  0
    6.8050   -4.5630   26.0870 C   0  0  2  0  0  0  0  0  0  0  0  0
    6.6920   -5.7260   25.2750 O   0  0  0  0  0  0  0  0  0  0  0  0
    7.0150   -5.4880   23.9090 C   0  0  2  0  0  0  0  0  0  0  0  0
    8.7690    2.7560   21.8410 H   0  0  0  0  0  0  0  0  0  0  0  0
   10.1600    1.9190   21.8240 H   0  0  0  0  0  0  0  0  0  0  0  0
    7.8540    1.1880   22.7830 H   0  0  0  0  0  0  0  0  0  0  0  0
    8.3830   -0.9070   20.9130 H   0  0  0  0  0  0  0  0  0  0  0  0
    8.7410    0.4110   25.1430 H   0  0  0  0  0  0  0  0  0  0  0  0
    7.6770   -0.6030   24.1530 H   0  0  0  0  0  0  0  0  0  0  0  0
   10.6340    1.5590   24.3550 H   0  0  0  0  0  0  0  0  0  0  0  0
   11.2650    1.5380   22.6830 H   0  0  0  0  0  0  0  0  0  0  0  0
   10.0300   -1.9660   20.9940 H   0  0  0  0  0  0  0  0  0  0  0  0
   10.1980   -1.5500   25.5930 H   0  0  0  0  0  0  0  0  0  0  0  0
    8.5870   -1.7390   26.1780 H   0  0  0  0  0  0  0  0  0  0  0  0
   10.8730   -3.7010   23.5700 H   0  0  0  0  0  0  0  0  0  0  0  0
    9.4880   -3.8860   22.5280 H   0  0  0  0  0  0  0  0  0  0  0  0
   12.5400   -1.8930   21.2330 H   0  0  0  0  0  0  0  0  0  0  0  0
   12.5770   -2.7300   22.7490 H   0  0  0  0  0  0  0  0  0  0  0  0
   12.0100   -0.3280   24.9390 H   0  0  0  0  0  0  0  0  0  0  0  0
   12.9230    0.9730   24.2830 H   0  0  0  0  0  0  0  0  0  0  0  0
    5.7150    1.6220   21.4930 H   0  0  0  0  0  0  0  0  0  0  0  0
    7.8000   -0.7900   18.6210 H   0  0  0  0  0  0  0  0  0  0  0  0
    7.9710   -3.0380   24.1550 H   0  0  0  0  0  0  0  0  0  0  0  0
   13.8360   -1.0600   23.4500 H   0  0  0  0  0  0  0  0  0  0  0  0
   13.3300    0.0370   22.1740 H   0  0  0  0  0  0  0  0  0  0  0  0
    4.1780    2.2840   19.6910 H   0  0  0  0  0  0  0  0  0  0  0  0
    4.5520    1.3600   17.4130 H   0  0  0  0  0  0  0  0  0  0  0  0
    9.2880   -6.2480   25.4800 H   0  0  0  0  0  0  0  0  0  0  0  0
   10.4600   -5.5270   24.4300 H   0  0  0  0  0  0  0  0  0  0  0  0
    8.5530   -5.0510   27.1940 H   0  0  0  0  0  0  0  0  0  0  0  0
    8.2160   -3.3300   27.0940 H   0  0  0  0  0  0  0  0  0  0  0  0
    8.6050   -6.7360   23.2460 H   0  0  0  0  0  0  0  0  0  0  0  0
    8.7720   -5.0760   22.7480 H   0  0  0  0  0  0  0  0  0  0  0  0
    6.3960   -3.7290   25.5010 H   0  0  0  0  0  0  0  0  0  0  0  0
    6.1620   -4.6460   26.9720 H   0  0  0  0  0  0  0  0  0  0  0  0
    6.4110   -6.1630   23.2930 H   0  0  0  0  0  0  0  0  0  0  0  0
    6.7150   -4.4660   23.6500 H   0  0  0  0  0  0  0  0  0  0  0  0
  1  2  1  0
  2  3  1  0
  4  2  1  6
  4  5  1  0
  4  6  1  0
  3  7  1  0
  4  8  1  0
  5  9  1  0
  8 10  1  0
  8 11  1  0
  6 12  1  0
  7 13  2  0
  7 14  1  0
  9 15  1  0
 10 15  1  0
 11 16  1  0
 12 16  1  0
 13 17  1  0
 14 18  2  0
 15 19  1  0
 17 20  2  0
 18 20  1  0
 19 21  1  0
 19 22  1  0
 21 23  1  0
 22 24  1  0
 24 25  1  0
 23 26  1  0
 25 26  1  0
  1 27  1  0
  1 28  1  0
  2 29  1  1
  3 30  1  0
  5 31  1  1
  5 32  1  0
  6 33  1  1
  6 34  1  0
  8 35  1  6
  9 36  1  1
  9 37  1  0
 10 38  1  1
 10 39  1  0
 11 40  1  6
 11 41  1  0
 12 42  1  1
 12 43  1  0
 13 44  1  0
 14 45  1  0
 15 46  1  6
 16 47  1  1
 16 48  1  0
 17 49  1  0
 20 50  1  0
 21 51  1  1
 21 52  1  0
 22 53  1  1
 22 54  1  0
 23 55  1  6
 23 56  1  0
 24 57  1  6
 24 58  1  0
 26 59  1  6
 26 60  1  0
M  END
