
     RDKit          3D

 64 67  0  0  0  0  0  0  0  0999 V2000
    8.9960    2.0580   21.3420 N   0  0  0  0  0  0  0  0  0  0  0  0
    8.4270    0.8020   21.8400 C   0  0  1  0  0  0  0  0  0  0  0  0
    8.0290   -0.0480   20.7790 N   0  0  0  0  0  0  0  0  0  0  0  0
    9.4280   -0.0560   23.0450 S   0  0  0  0  0  0  0  0  0  0  0  0
    8.5220   -0.6360   24.5960 C   0  0  2  0  0  0  0  0  0  0  0  0
    8.3950   -1.3700   22.8870 N   0  0  0  0  0  0  0  0  0  0  0  0
   10.9800    0.8290   22.8660 C   0  0  1  0  0  0  0  0  0  0  0  0
   10.9750   -1.0920   23.0780 C   0  0  1  0  0  0  0  0  0  0  0  0
    6.7010   -0.3810   20.5760 C   0  0  0  0  0  0  0  0  0  0  0  0
    9.1810   -1.7380   24.9780 C   0  0  1  0  0  0  0  0  0  0  0  0
    8.7300   -2.6610   22.8430 C   0  0  1  0  0  0  0  0  0  0  0  0
   12.0070    0.8730   23.7780 C   0  0  2  0  0  0  0  0  0  0  0  0
   12.1170   -0.5210   22.5530 C   0  0  2  0  0  0  0  0  0  0  0  0
    6.4190    0.3320   19.3810 C   0  0  0  0  0  0  0  0  0  0  0  0
    5.6470   -0.2900   19.8880 C   0  0  0  0  0  0  0  0  0  0  0  0
    9.3140   -2.7640   24.1200 C   0  0  2  0  0  0  0  0  0  0  0  0
   13.0800    0.0850   23.4810 C   0  0  1  0  0  0  0  0  0  0  0  0
    5.0700    0.3280   18.6970 C   0  0  0  0  0  0  0  0  0  0  0  0
    6.6390    0.5260   19.1920 N   0  0  0  0  0  0  0  0  0  0  0  0
    8.7640   -3.8920   24.7050 N   0  0  0  0  0  0  0  0  0  0  0  0
    5.9890    0.9810   18.1940 C   0  0  0  0  0  0  0  0  0  0  0  0
    9.7520   -4.6860   25.2730 C   0  0  2  0  0  0  0  0  0  0  0  0
    7.6420   -3.6170   25.5150 C   0  0  2  0  0  0  0  0  0  0  0  0
    9.1600   -6.0040   25.4570 C   0  0  2  0  0  0  0  0  0  0  0  0
    6.5510   -4.4940   25.4790 C   0  0  1  0  0  0  0  0  0  0  0  0
    6.7990   -5.7730   25.7980 O   0  0  0  0  0  0  0  0  0  0  0  0
    8.0400   -5.8380   26.4450 C   0  0  2  0  0  0  0  0  0  0  0  0
    8.4550    2.5480   20.6490 H   0  0  0  0  0  0  0  0  0  0  0  0
    9.4230    2.7140   22.0190 H   0  0  0  0  0  0  0  0  0  0  0  0
    7.6150    1.2430   22.4290 H   0  0  0  0  0  0  0  0  0  0  0  0
    8.7990   -0.6350   20.3240 H   0  0  0  0  0  0  0  0  0  0  0  0
    9.2530    1.4130   24.2520 H   0  0  0  0  0  0  0  0  0  0  0  0
    7.4930   -0.9950   24.2890 H   0  0  0  0  0  0  0  0  0  0  0  0
    8.6130   -0.0760   25.4560 H   0  0  0  0  0  0  0  0  0  0  0  0
    7.4410   -1.2580   22.5780 H   0  0  0  0  0  0  0  0  0  0  0  0
   11.5570    0.7040   21.9930 H   0  0  0  0  0  0  0  0  0  0  0  0
   10.7410    1.9300   22.5750 H   0  0  0  0  0  0  0  0  0  0  0  0
   11.4040   -1.2840   24.0880 H   0  0  0  0  0  0  0  0  0  0  0  0
   10.7930   -2.1520   22.9400 H   0  0  0  0  0  0  0  0  0  0  0  0
   10.1960   -1.6180   25.4880 H   0  0  0  0  0  0  0  0  0  0  0  0
    8.5670   -2.1060   25.8420 H   0  0  0  0  0  0  0  0  0  0  0  0
    7.9480   -3.4450   22.6980 H   0  0  0  0  0  0  0  0  0  0  0  0
    9.4680   -2.8700   22.0410 H   0  0  0  0  0  0  0  0  0  0  0  0
   11.7970    0.4360   24.8040 H   0  0  0  0  0  0  0  0  0  0  0  0
   12.3490    1.8960   24.0160 H   0  0  0  0  0  0  0  0  0  0  0  0
   11.6900    0.4000   22.0620 H   0  0  0  0  0  0  0  0  0  0  0  0
   12.7020   -0.9820   21.7600 H   0  0  0  0  0  0  0  0  0  0  0  0
    7.2540    0.8840   18.9970 H   0  0  0  0  0  0  0  0  0  0  0  0
    5.2720   -0.9470   20.6650 H   0  0  0  0  0  0  0  0  0  0  0  0
   10.3650   -3.0500   23.8950 H   0  0  0  0  0  0  0  0  0  0  0  0
   13.8640    0.6650   23.0060 H   0  0  0  0  0  0  0  0  0  0  0  0
   13.3040   -0.4720   24.3770 H   0  0  0  0  0  0  0  0  0  0  0  0
    4.4230    0.6520   17.8870 H   0  0  0  0  0  0  0  0  0  0  0  0
    6.1260    1.6180   17.3180 H   0  0  0  0  0  0  0  0  0  0  0  0
    9.9850   -4.2870   26.2640 H   0  0  0  0  0  0  0  0  0  0  0  0
   10.7250   -4.6990   24.7450 H   0  0  0  0  0  0  0  0  0  0  0  0
    7.2570   -2.6410   25.2060 H   0  0  0  0  0  0  0  0  0  0  0  0
    7.9750   -3.5210   26.5560 H   0  0  0  0  0  0  0  0  0  0  0  0
    9.9130   -6.6580   25.9110 H   0  0  0  0  0  0  0  0  0  0  0  0
    8.8050   -6.4050   24.4740 H   0  0  0  0  0  0  0  0  0  0  0  0
    5.8000   -4.1330   26.1970 H   0  0  0  0  0  0  0  0  0  0  0  0
    6.0530   -4.4820   24.5000 H   0  0  0  0  0  0  0  0  0  0  0  0
    8.1530   -4.9200   27.0300 H   0  0  0  0  0  0  0  0  0  0  0  0
    8.0170   -6.6630   27.1510 H   0  0  0  0  0  0  0  0  0  0  0  0
  1  2  1  0
  2  3  1  0
  2  4  1  0
  4  5  1  0
  4  6  1  0
  4  7  1  0
  4  8  1  0
  3  9  1  0
  5 10  1  0
  6 11  1  0
  7 12  1  0
  8 13  1  0
  9 14  2  0
  9 15  1  0
 10 16  1  0
 11 16  1  0
 12 17  1  0
 13 17  1  0
 14 18  1  0
 15 19  2  0
 16 20  1  0
 18 21  2  0
 19 21  1  0
 20 22  1  0
 20 23  1  0
 22 24  1  0
 23 25  1  0
 25 26  1  0
 24 27  1  0
 26 27  1  0
  1 28  1  0
  1 29  1  0
  2 30  1  1
  3 31  1  0
  4 32  1  0
  5 33  1  6
  5 34  1  0
  6 35  1  0
  7 36  1  6
  7 37  1  0
  8 38  1  1
  8 39  1  0
 10 40  1  1
 10 41  1  0
 11 42  1  1
 11 43  1  0
 12 44  1  1
 12 45  1  0
 13 46  1  6
 13 47  1  0
 14 48  1  0
 15 49  1  0
 16 50  1  6
 17 51  1  6
 17 52  1  0
 18 53  1  0
 21 54  1  0
 22 55  1  1
 22 56  1  0
 23 57  1  6
 23 58  1  0
 24 59  1  1
 24 60  1  0
 25 61  1  1
 25 62  1  0
 27 63  1  1
 27 64  1  0
M  END
