
     RDKit          3D

 52 54  0  0  0  0  0  0  0  0999 V2000
    8.9990    1.7870   22.3130 C   0  0  2  0  0  0  0  0  0  0  0  0
    9.7780    0.5400   22.6950 C   0  0  1  0  0  0  0  0  0  0  0  0
   10.4080    0.5920   24.0170 N   0  0  0  0  0  0  0  0  0  0  0  0
    8.8910   -0.5570   22.6350 O   0  0  0  0  0  0  0  0  0  0  0  0
    9.5600   -1.8140   22.5960 C   0  0  1  0  0  0  0  0  0  0  0  0
   11.8430    0.4450   24.0340 C   0  0  2  0  0  0  0  0  0  0  0  0
   10.5720   -1.9060   23.6630 N   0  0  0  0  0  0  0  0  0  0  0  0
   12.1980    0.1540   22.6550 N   0  0  0  0  0  0  0  0  0  0  0  0
   12.4700   -0.5080   24.8060 C   0  0  1  0  0  0  0  0  0  0  0  0
    8.5380   -2.8950   22.9230 C   0  0  2  0  0  0  0  0  0  0  0  0
   12.6430   -1.2370   22.4050 C   0  0  2  0  0  0  0  0  0  0  0  0
   11.9020   -2.3340   23.1500 C   0  0  1  0  0  0  0  0  0  0  0  0
    8.5390   -2.9130   24.4460 C   0  0  2  0  0  0  0  0  0  0  0  0
   10.0570   -2.8490   24.6910 C   0  0  1  0  0  0  0  0  0  0  0  0
   12.8190   -2.7880   24.2490 C   0  0  0  0  0  0  0  0  0  0  0  0
    7.8430   -4.0610   25.0470 N   0  0  0  0  0  0  0  0  0  0  0  0
   13.5350   -3.1120   25.1070 N   0  0  0  0  0  0  0  0  0  0  0  0
    8.1500   -5.4140   24.5690 C   0  0  2  0  0  0  0  0  0  0  0  0
    6.4960   -3.7990   25.6000 C   0  0  1  0  0  0  0  0  0  0  0  0
    7.6050   -5.7780   23.1710 C   0  0  1  0  0  0  0  0  0  0  0  0
    5.3410   -4.3640   24.7540 C   0  0  1  0  0  0  0  0  0  0  0  0
    5.4560   -5.7180   24.3070 O   0  0  0  0  0  0  0  0  0  0  0  0
    6.1030   -5.8690   23.0490 C   0  0  2  0  0  0  0  0  0  0  0  0
    8.4840    1.6560   21.3540 H   0  0  0  0  0  0  0  0  0  0  0  0
    9.6830    2.6360   22.2100 H   0  0  0  0  0  0  0  0  0  0  0  0
    8.2570    2.0550   23.0730 H   0  0  0  0  0  0  0  0  0  0  0  0
   10.5870    0.4340   21.9710 H   0  0  0  0  0  0  0  0  0  0  0  0
   10.2060    1.5050   24.4430 H   0  0  0  0  0  0  0  0  0  0  0  0
   10.0230   -2.0160   21.6180 H   0  0  0  0  0  0  0  0  0  0  0  0
   12.3190    1.3770   24.3360 H   0  0  0  0  0  0  0  0  0  0  0  0
   12.9690    0.7720   22.3940 H   0  0  0  0  0  0  0  0  0  0  0  0
   13.4000   -0.8680   24.3490 H   0  0  0  0  0  0  0  0  0  0  0  0
   12.7170   -0.1400   25.7970 H   0  0  0  0  0  0  0  0  0  0  0  0
   11.8160   -1.3640   24.9880 H   0  0  0  0  0  0  0  0  0  0  0  0
    8.8060   -3.8690   22.4950 H   0  0  0  0  0  0  0  0  0  0  0  0
    7.5350   -2.6480   22.5610 H   0  0  0  0  0  0  0  0  0  0  0  0
   13.6920   -1.2700   22.7260 H   0  0  0  0  0  0  0  0  0  0  0  0
   12.6670   -1.4790   21.3400 H   0  0  0  0  0  0  0  0  0  0  0  0
   11.7580   -3.1790   22.4980 H   0  0  0  0  0  0  0  0  0  0  0  0
    8.1080   -1.9880   24.8460 H   0  0  0  0  0  0  0  0  0  0  0  0
   10.5090   -3.8460   24.5810 H   0  0  0  0  0  0  0  0  0  0  0  0
   10.2660   -2.4790   25.6970 H   0  0  0  0  0  0  0  0  0  0  0  0
    7.7860   -6.1340   25.3010 H   0  0  0  0  0  0  0  0  0  0  0  0
    9.2450   -5.4880   24.5610 H   0  0  0  0  0  0  0  0  0  0  0  0
    6.5130   -4.1170   26.6400 H   0  0  0  0  0  0  0  0  0  0  0  0
    6.3360   -2.7150   25.6650 H   0  0  0  0  0  0  0  0  0  0  0  0
    7.9430   -5.0370   22.4380 H   0  0  0  0  0  0  0  0  0  0  0  0
    8.0280   -6.7420   22.8790 H   0  0  0  0  0  0  0  0  0  0  0  0
    4.4110   -4.2940   25.3360 H   0  0  0  0  0  0  0  0  0  0  0  0
    5.2110   -3.7360   23.8640 H   0  0  0  0  0  0  0  0  0  0  0  0
    5.8380   -6.8610   22.6580 H   0  0  0  0  0  0  0  0  0  0  0  0
    5.7580   -5.1240   22.3280 H   0  0  0  0  0  0  0  0  0  0  0  0
  1  2  1  0
  2  3  1  0
  2  4  1  0
  4  5  1  0
  3  6  1  0
  5  7  1  0
  6  8  1  0
  6  9  1  0
  5 10  1  0
  8 11  1  0
  7 12  1  0
 11 12  1  0
 10 13  1  0
  7 14  1  0
 13 14  1  0
 12 15  1  0
 13 16  1  0
 15 17  3  0
 16 18  1  0
 16 19  1  0
 18 20  1  0
 19 21  1  0
 21 22  1  0
 20 23  1  0
 22 23  1  0
  1 24  1  6
  1 25  1  0
  1 26  1  0
  2 27  1  6
  3 28  1  0
  5 29  1  6
  6 30  1  1
  8 31  1  0
  9 32  1  6
  9 33  1  0
  9 34  1  0
 10 35  1  6
 10 36  1  0
 11 37  1  1
 11 38  1  0
 12 39  1  6
 13 40  1  1
 14 41  1  6
 14 42  1  0
 18 43  1  1
 18 44  1  0
 19 45  1  1
 19 46  1  0
 20 47  1  6
 20 48  1  0
 21 49  1  1
 21 50  1  0
 23 51  1  6
 23 52  1  0
M  END
