
     RDKit          3D

 48 51  0  0  0  0  0  0  0  0999 V2000
    8.0630    0.0500   25.3220 C   0  0  1  0  0  0  0  0  0  0  0  0
    7.4130    1.0010   24.2580 C   0  0  0  0  0  0  0  0  0  0  0  0
    8.1000    1.8560   23.6730 O   0  0  0  0  0  0  0  0  0  0  0  0
    9.3860    0.7870   25.5570 C   0  0  1  0  0  0  0  0  0  0  0  0
    7.4610   -0.2380   26.6410 O   0  0  0  0  0  0  0  0  0  0  0  0
    8.6550   -1.2600   24.7240 C   0  0  0  0  0  0  0  0  0  0  0  0
    8.1920   -2.3900   24.7670 O   0  0  0  0  0  0  0  0  0  0  0  0
    6.0710    0.9230   23.9300 N   0  0  0  0  0  0  0  0  0  0  0  0
    9.9390   -0.9560   24.0390 C   0  0  0  0  0  0  0  0  0  0  0  0
   10.3630    0.2740   24.5210 C   0  0  0  0  0  0  0  0  0  0  0  0
    7.1110    0.6940   27.6220 C   0  0  0  0  0  0  0  0  0  0  0  0
    5.4890    1.5270   22.7200 C   0  0  2  0  0  0  0  0  0  0  0  0
    5.1390    0.8230   25.0640 C   0  0  1  0  0  0  0  0  0  0  0  0
   11.5480    0.8570   24.0440 C   0  0  0  0  0  0  0  0  0  0  0  0
   10.6750   -1.6680   23.0870 C   0  0  0  0  0  0  0  0  0  0  0  0
    7.6550    1.9570   27.8050 C   0  0  0  0  0  0  0  0  0  0  0  0
    6.0870    0.2980   28.5140 C   0  0  0  0  0  0  0  0  0  0  0  0
    4.0900    0.9760   22.4400 C   0  0  2  0  0  0  0  0  0  0  0  0
    3.9050    0.2690   24.7030 C   0  0  2  0  0  0  0  0  0  0  0  0
   12.3270    0.2050   23.0990 C   0  0  0  0  0  0  0  0  0  0  0  0
   11.9360   -1.0400   22.6070 C   0  0  0  0  0  0  0  0  0  0  0  0
    7.2140    2.8090   28.8310 C   0  0  0  0  0  0  0  0  0  0  0  0
    5.6370    1.1480   29.5430 C   0  0  0  0  0  0  0  0  0  0  0  0
   12.7640   -1.6710   21.6500 C   0  0  0  0  0  0  0  0  0  0  0  0
    3.2760    0.9450   23.6120 O   0  0  0  0  0  0  0  0  0  0  0  0
    6.1990    2.4190   29.7120 C   0  0  0  0  0  0  0  0  0  0  0  0
   13.4310   -2.1420   20.8590 N   0  0  0  0  0  0  0  0  0  0  0  0
    5.7330    3.3460   30.8020 C   0  0  1  0  0  0  0  0  0  0  0  0
    9.2330    1.8540   25.4580 H   0  0  0  0  0  0  0  0  0  0  0  0
    9.7730    0.5620   26.5540 H   0  0  0  0  0  0  0  0  0  0  0  0
    6.1250    1.3900   21.8490 H   0  0  0  0  0  0  0  0  0  0  0  0
    5.4310    2.6030   22.9190 H   0  0  0  0  0  0  0  0  0  0  0  0
    5.5920    0.2310   25.8660 H   0  0  0  0  0  0  0  0  0  0  0  0
    4.9960    1.8440   25.4340 H   0  0  0  0  0  0  0  0  0  0  0  0
   11.8780    1.8150   24.4010 H   0  0  0  0  0  0  0  0  0  0  0  0
   10.3330   -2.6350   22.7220 H   0  0  0  0  0  0  0  0  0  0  0  0
    8.4390    2.3300   27.1590 H   0  0  0  0  0  0  0  0  0  0  0  0
    5.6340   -0.6840   28.4050 H   0  0  0  0  0  0  0  0  0  0  0  0
    4.1510   -0.0460   22.0530 H   0  0  0  0  0  0  0  0  0  0  0  0
    3.5790    1.5880   21.6890 H   0  0  0  0  0  0  0  0  0  0  0  0
    3.2150    0.2910   25.5520 H   0  0  0  0  0  0  0  0  0  0  0  0
    4.0310   -0.7820   24.4110 H   0  0  0  0  0  0  0  0  0  0  0  0
   13.2460    0.6720   22.7460 H   0  0  0  0  0  0  0  0  0  0  0  0
    7.6770    3.7900   28.9300 H   0  0  0  0  0  0  0  0  0  0  0  0
    4.8460    0.8070   30.2080 H   0  0  0  0  0  0  0  0  0  0  0  0
    5.5390    2.7950   31.7290 H   0  0  0  0  0  0  0  0  0  0  0  0
    6.4940    4.1080   30.9970 H   0  0  0  0  0  0  0  0  0  0  0  0
    4.7990    3.8430   30.5190 H   0  0  0  0  0  0  0  0  0  0  0  0
  1  2  1  0
  2  3  2  0
  1  4  1  0
  1  5  1  1
  1  6  1  0
  6  7  2  0
  2  8  1  0
  6  9  1  0
  4 10  1  0
  9 10  2  0
  5 11  1  0
  8 12  1  0
  8 13  1  0
 10 14  1  0
  9 15  1  0
 11 16  2  0
 11 17  1  0
 12 18  1  0
 13 19  1  0
 14 20  2  0
 15 21  2  0
 20 21  1  0
 16 22  1  0
 17 23  2  0
 21 24  1  0
 18 25  1  0
 19 25  1  0
 22 26  2  0
 23 26  1  0
 24 27  3  0
 26 28  1  0
  4 29  1  1
  4 30  1  0
 12 31  1  6
 12 32  1  0
 13 33  1  1
 13 34  1  0
 14 35  1  0
 15 36  1  0
 16 37  1  0
 17 38  1  0
 18 39  1  6
 18 40  1  0
 19 41  1  1
 19 42  1  0
 20 43  1  0
 22 44  1  0
 23 45  1  0
 28 46  1  1
 28 47  1  0
 28 48  1  0
M  END
