
     RDKit          3D

 52 54  0  0  0  0  0  0  0  0999 V2000
    8.0760    0.5020   24.9510 N   0  0  0  0  0  0  0  0  0  0  0  0
    7.4440    1.4280   24.1860 C   0  0  0  0  0  0  0  0  0  0  0  0
    8.0290    2.4090   23.7240 O   0  0  0  0  0  0  0  0  0  0  0  0
    9.4190    0.7610   25.4430 C   0  0  1  0  0  0  0  0  0  0  0  0
    6.1000    1.1910   23.9640 N   0  0  0  0  0  0  0  0  0  0  0  0
   10.4270    0.2250   24.4990 C   0  0  0  0  0  0  0  0  0  0  0  0
    5.3190    1.4630   22.7320 C   0  0  2  0  0  0  0  0  0  0  0  0
    5.2650    0.8920   25.1290 C   0  0  1  0  0  0  0  0  0  0  0  0
   11.4120    1.0450   23.9300 C   0  0  0  0  0  0  0  0  0  0  0  0
   10.3940   -1.2640   24.1170 C   0  0  0  0  0  0  0  0  0  0  0  0
    3.9400    1.9280   23.0880 C   0  0  2  0  0  0  0  0  0  0  0  0
    4.0640    0.2880   24.6630 C   0  0  2  0  0  0  0  0  0  0  0  0
   12.3380    0.5930   23.0360 C   0  0  0  0  0  0  0  0  0  0  0  0
   11.3230   -1.7100   23.2140 C   0  0  0  0  0  0  0  0  0  0  0  0
    5.1060    0.2030   21.8730 C   0  0  2  0  0  0  0  0  0  0  0  0
    3.3000    1.1100   23.7550 O   0  0  0  0  0  0  0  0  0  0  0  0
   12.2650   -0.8680   22.6580 C   0  0  0  0  0  0  0  0  0  0  0  0
    5.5620    0.2880   20.4410 C   0  0  0  0  0  0  0  0  0  0  0  0
   13.1320   -1.3660   21.7190 C   0  0  0  0  0  0  0  0  0  0  0  0
    6.7970   -0.1740   19.9930 C   0  0  0  0  0  0  0  0  0  0  0  0
    4.6840    0.8670   19.5040 C   0  0  0  0  0  0  0  0  0  0  0  0
   13.8410   -1.7770   20.5940 N   0  0  0  0  0  0  0  0  0  0  0  0
    7.7220   -0.7290   20.8740 N   0  0  0  0  0  0  0  0  0  0  0  0
    5.0720    0.9450   18.1870 C   0  0  0  0  0  0  0  0  0  0  0  0
    7.0670   -0.0580   18.6580 C   0  0  0  0  0  0  0  0  0  0  0  0
    8.7930   -0.0110   21.3810 C   0  0  0  0  0  0  0  0  0  0  0  0
    6.2430    0.4850   17.7500 N   0  0  0  0  0  0  0  0  0  0  0  0
    9.7250   -0.9000   22.1250 C   0  0  1  0  0  0  0  0  0  0  0  0
    9.0280    1.2020   21.2320 O   0  0  0  0  0  0  0  0  0  0  0  0
    7.9180   -0.4520   24.6820 H   0  0  0  0  0  0  0  0  0  0  0  0
    9.5680    1.8270   25.5270 H   0  0  0  0  0  0  0  0  0  0  0  0
    9.5130    0.3070   26.4320 H   0  0  0  0  0  0  0  0  0  0  0  0
    5.8260    2.2710   22.2000 H   0  0  0  0  0  0  0  0  0  0  0  0
    5.7570    0.1870   25.8020 H   0  0  0  0  0  0  0  0  0  0  0  0
    5.1680    1.8240   25.6810 H   0  0  0  0  0  0  0  0  0  0  0  0
   11.4460    2.0970   24.2010 H   0  0  0  0  0  0  0  0  0  0  0  0
    9.6530   -1.9410   24.5400 H   0  0  0  0  0  0  0  0  0  0  0  0
    3.3670    2.1220   22.1750 H   0  0  0  0  0  0  0  0  0  0  0  0
    3.9770    2.8660   23.6460 H   0  0  0  0  0  0  0  0  0  0  0  0
    3.3760   -0.0370   25.4360 H   0  0  0  0  0  0  0  0  0  0  0  0
    4.3240   -0.6150   24.0910 H   0  0  0  0  0  0  0  0  0  0  0  0
   13.0820    1.2650   22.6110 H   0  0  0  0  0  0  0  0  0  0  0  0
   11.2960   -2.7610   22.9280 H   0  0  0  0  0  0  0  0  0  0  0  0
    4.0620   -0.1260   21.9650 H   0  0  0  0  0  0  0  0  0  0  0  0
    5.6890   -0.6320   22.3050 H   0  0  0  0  0  0  0  0  0  0  0  0
    3.7150    1.2480   19.7940 H   0  0  0  0  0  0  0  0  0  0  0  0
    7.4720   -1.5710   21.3690 H   0  0  0  0  0  0  0  0  0  0  0  0
    4.4330    1.3860   17.4350 H   0  0  0  0  0  0  0  0  0  0  0  0
    7.9940   -0.4050   18.2190 H   0  0  0  0  0  0  0  0  0  0  0  0
    9.8580   -1.8350   21.5730 H   0  0  0  0  0  0  0  0  0  0  0  0
   10.6890   -0.4040   22.2250 H   0  0  0  0  0  0  0  0  0  0  0  0
    9.2930   -1.1250   23.1000 H   0  0  0  0  0  0  0  0  0  0  0  0
  1  2  1  0
  2  3  2  0
  1  4  1  0
  2  5  1  0
  4  6  1  0
  5  7  1  0
  5  8  1  0
  6  9  2  0
  6 10  1  0
  7 11  1  0
  8 12  1  0
  9 13  1  0
 10 14  2  0
  7 15  1  0
 11 16  1  0
 12 16  1  0
 13 17  2  0
 14 17  1  0
 15 18  1  0
 17 19  1  0
 18 20  2  0
 18 21  1  0
 19 22  3  0
 20 23  1  0
 21 24  2  0
 20 25  1  0
 23 26  1  0
 24 27  1  0
 25 27  2  0
 26 28  1  0
 26 29  2  0
  1 30  1  0
  4 31  1  1
  4 32  1  0
  7 33  1  6
  8 34  1  1
  8 35  1  0
  9 36  1  0
 10 37  1  0
 11 38  1  6
 11 39  1  0
 12 40  1  1
 12 41  1  0
 13 42  1  0
 14 43  1  0
 15 44  1  6
 15 45  1  0
 21 46  1  0
 23 47  1  0
 24 48  1  0
 25 49  1  0
 28 50  1  6
 28 51  1  0
 28 52  1  0
M  END
