
     RDKit          3D

 65 68  0  0  0  0  0  0  0  0999 V2000
    8.0190    0.6240   24.8110 N   0  0  0  0  0  0  0  0  0  0  0  0
    7.4010    1.4800   23.9510 C   0  0  0  0  0  0  0  0  0  0  0  0
    7.9790    2.4320   23.4340 O   0  0  0  0  0  0  0  0  0  0  0  0
    9.3790    0.9010   25.2880 C   0  0  1  0  0  0  0  0  0  0  0  0
    6.0650    1.1670   23.7330 N   0  0  0  0  0  0  0  0  0  0  0  0
   10.3380    0.2770   24.3470 C   0  0  0  0  0  0  0  0  0  0  0  0
    5.3480    1.9030   22.8020 C   0  0  2  0  0  0  0  0  0  0  0  0
    5.2780    0.9130   24.9460 C   0  0  1  0  0  0  0  0  0  0  0  0
   11.4800    0.9710   23.9260 C   0  0  0  0  0  0  0  0  0  0  0  0
   10.0240   -1.1280   23.8670 C   0  0  0  0  0  0  0  0  0  0  0  0
    3.9540    1.3830   22.5250 C   0  0  1  0  0  0  0  0  0  0  0  0
    4.0900    0.2630   24.6260 C   0  0  2  0  0  0  0  0  0  0  0  0
   12.5640    0.3950   22.9160 C   0  0  0  0  0  0  0  0  0  0  0  0
   10.9790   -1.7850   22.8940 C   0  0  0  0  0  0  0  0  0  0  0  0
    3.2920    1.1130   23.7780 O   0  0  0  0  0  0  0  0  0  0  0  0
   12.2160   -1.0420   22.4270 C   0  0  0  0  0  0  0  0  0  0  0  0
    3.1490    2.3430   21.8080 O   0  0  0  0  0  0  0  0  0  0  0  0
   13.0180   -1.7160   21.5250 C   0  0  0  0  0  0  0  0  0  0  0  0
    3.8350    3.1320   20.8190 C   0  0  1  0  0  0  0  0  0  0  0  0
   13.5670   -2.2860   20.7460 N   0  0  0  0  0  0  0  0  0  0  0  0
    3.6090    2.5730   19.4140 C   0  0  2  0  0  0  0  0  0  0  0  0
    4.5920    1.5340   19.0710 C   0  0  0  0  0  0  0  0  0  0  0  0
    4.9700    0.4040   19.7040 C   0  0  0  0  0  0  0  0  0  0  0  0
    5.2950    1.6770   17.9060 O   0  0  0  0  0  0  0  0  0  0  0  0
    5.9910   -0.1420   18.8130 C   0  0  0  0  0  0  0  0  0  0  0  0
    6.1720    0.6240   17.7460 N   0  0  0  0  0  0  0  0  0  0  0  0
    6.7390   -1.3620   19.0230 C   0  0  2  0  0  0  0  0  0  0  0  0
    6.7030   -1.7030   20.3350 N   0  0  0  0  0  0  0  0  0  0  0  0
    7.8280   -1.2250   21.1350 C   0  0  1  0  0  0  0  0  0  0  0  0
    5.9620   -2.8100   20.8000 C   0  0  0  0  0  0  0  0  0  0  0  0
    5.0300   -3.2920   20.1610 O   0  0  0  0  0  0  0  0  0  0  0  0
    6.3640   -3.3470   22.0090 N   0  0  0  0  0  0  0  0  0  0  0  0
    5.7910   -4.5640   22.5160 C   0  0  2  0  0  0  0  0  0  0  0  0
    6.6040   -5.4420   23.4280 C   0  0  1  0  0  0  0  0  0  0  0  0
    6.2600   -5.9120   22.0450 C   0  0  2  0  0  0  0  0  0  0  0  0
    7.4130    0.0750   25.3990 H   0  0  0  0  0  0  0  0  0  0  0  0
    9.5070    1.9820   25.2950 H   0  0  0  0  0  0  0  0  0  0  0  0
    9.5240    0.5180   26.3020 H   0  0  0  0  0  0  0  0  0  0  0  0
    5.9030    1.9840   21.8620 H   0  0  0  0  0  0  0  0  0  0  0  0
    5.2800    2.9250   23.1940 H   0  0  0  0  0  0  0  0  0  0  0  0
    5.8570    0.3290   25.6680 H   0  0  0  0  0  0  0  0  0  0  0  0
    5.0610    1.8900   25.3920 H   0  0  0  0  0  0  0  0  0  0  0  0
   11.6350    1.9700   24.3120 H   0  0  0  0  0  0  0  0  0  0  0  0
    9.1350   -1.6550   24.2060 H   0  0  0  0  0  0  0  0  0  0  0  0
    3.9860    0.4350   21.9750 H   0  0  0  0  0  0  0  0  0  0  0  0
    3.5090    0.0880   25.5380 H   0  0  0  0  0  0  0  0  0  0  0  0
    4.1480   -0.6960   24.1160 H   0  0  0  0  0  0  0  0  0  0  0  0
   13.4400    0.9600   22.6080 H   0  0  0  0  0  0  0  0  0  0  0  0
   10.7690   -2.7900   22.5320 H   0  0  0  0  0  0  0  0  0  0  0  0
    3.4880    4.1730   20.8820 H   0  0  0  0  0  0  0  0  0  0  0  0
    4.9150    3.1250   21.0170 H   0  0  0  0  0  0  0  0  0  0  0  0
    3.6580    3.3830   18.6770 H   0  0  0  0  0  0  0  0  0  0  0  0
    2.6080    2.1330   19.3570 H   0  0  0  0  0  0  0  0  0  0  0  0
    4.6050    0.0080   20.6410 H   0  0  0  0  0  0  0  0  0  0  0  0
    7.7810   -1.2290   18.7100 H   0  0  0  0  0  0  0  0  0  0  0  0
    6.3050   -2.1530   18.4010 H   0  0  0  0  0  0  0  0  0  0  0  0
    8.6880   -1.9000   21.0940 H   0  0  0  0  0  0  0  0  0  0  0  0
    8.1420   -0.2460   20.7580 H   0  0  0  0  0  0  0  0  0  0  0  0
    7.5010   -1.1270   22.1740 H   0  0  0  0  0  0  0  0  0  0  0  0
    6.5820   -2.6350   22.7040 H   0  0  0  0  0  0  0  0  0  0  0  0
    4.7320   -4.4910   22.7450 H   0  0  0  0  0  0  0  0  0  0  0  0
    7.6330   -5.1680   23.6270 H   0  0  0  0  0  0  0  0  0  0  0  0
    6.0880   -5.8900   24.2690 H   0  0  0  0  0  0  0  0  0  0  0  0
    7.0610   -5.9460   21.3180 H   0  0  0  0  0  0  0  0  0  0  0  0
    5.5360   -6.7090   21.9390 H   0  0  0  0  0  0  0  0  0  0  0  0
  1  2  1  0
  2  3  2  0
  1  4  1  0
  2  5  1  0
  4  6  1  0
  5  7  1  0
  5  8  1  0
  6  9  2  0
  6 10  1  0
  7 11  1  0
  8 12  1  0
  9 13  1  0
 10 14  2  0
 11 15  1  0
 12 15  1  0
 13 16  2  0
 14 16  1  0
 11 17  1  0
 16 18  1  0
 17 19  1  0
 18 20  3  0
 19 21  1  0
 21 22  1  0
 22 23  2  0
 22 24  1  0
 23 25  1  0
 24 26  1  0
 25 26  2  0
 25 27  1  0
 27 28  1  0
 28 29  1  0
 28 30  1  0
 30 31  2  0
 30 32  1  0
 32 33  1  0
 33 34  1  0
 33 35  1  0
 34 35  1  0
  1 36  1  0
  4 37  1  1
  4 38  1  0
  7 39  1  6
  7 40  1  0
  8 41  1  1
  8 42  1  0
  9 43  1  0
 10 44  1  0
 11 45  1  6
 12 46  1  1
 12 47  1  0
 13 48  1  0
 14 49  1  0
 19 50  1  6
 19 51  1  0
 21 52  1  6
 21 53  1  0
 23 54  1  0
 27 55  1  6
 27 56  1  0
 29 57  1  1
 29 58  1  0
 29 59  1  0
 32 60  1  0
 33 61  1  1
 34 62  1  1
 34 63  1  0
 35 64  1  6
 35 65  1  0
M  END
