
     RDKit          3D

 52 54  0  0  0  0  0  0  0  0999 V2000
    8.1070    0.7150   24.8060 N   0  0  0  0  0  0  0  0  0  0  0  0
    7.4330    1.5290   23.9640 C   0  0  0  0  0  0  0  0  0  0  0  0
    8.0620    2.6010   23.2690 O   0  0  0  0  0  0  0  0  0  0  0  0
    9.5000    0.9990   25.1480 C   0  0  1  0  0  0  0  0  0  0  0  0
    6.0970    1.2340   23.8490 N   0  0  0  0  0  0  0  0  0  0  0  0
   10.4460    0.3300   24.2120 C   0  0  0  0  0  0  0  0  0  0  0  0
    5.4320    1.7250   22.6370 C   0  0  2  0  0  0  0  0  0  0  0  0
    5.2210    1.0020   25.0170 C   0  0  1  0  0  0  0  0  0  0  0  0
   11.7490    1.0330   23.8150 C   0  0  0  0  0  0  0  0  0  0  0  0
   10.1450   -1.0400   23.6360 C   0  0  0  0  0  0  0  0  0  0  0  0
    8.8940   -1.8080   23.9570 C   0  0  2  0  0  0  0  0  0  0  0  0
    4.1050    1.0030   22.4080 C   0  0  2  0  0  0  0  0  0  0  0  0
    4.0650    0.2690   24.6630 C   0  0  2  0  0  0  0  0  0  0  0  0
   12.6030    0.3820   22.9430 C   0  0  0  0  0  0  0  0  0  0  0  0
   11.0750   -1.5670   22.7820 C   0  0  0  0  0  0  0  0  0  0  0  0
    3.3280    0.8690   23.5980 O   0  0  0  0  0  0  0  0  0  0  0  0
   12.2550   -0.9970   22.3850 C   0  0  0  0  0  0  0  0  0  0  0  0
    9.0940   -3.1490   24.5000 N   0  0  0  0  0  0  0  0  0  0  0  0
   13.0440   -1.6970   21.4980 C   0  0  0  0  0  0  0  0  0  0  0  0
    7.9600   -3.4840   25.3420 C   0  0  2  0  0  0  0  0  0  0  0  0
   10.3610   -3.3700   25.2040 C   0  0  1  0  0  0  0  0  0  0  0  0
   13.5960   -2.2780   20.7330 N   0  0  0  0  0  0  0  0  0  0  0  0
    7.9650   -4.8060   25.7680 C   0  0  2  0  0  0  0  0  0  0  0  0
   10.4640   -4.7010   25.9610 C   0  0  2  0  0  0  0  0  0  0  0  0
    9.1710   -5.1370   26.6400 C   0  0  1  0  0  0  0  0  0  0  0  0
    9.0530   -4.4410   27.8660 O   0  0  0  0  0  0  0  0  0  0  0  0
    7.8220   -0.2590   24.7650 H   0  0  0  0  0  0  0  0  0  0  0  0
    9.6050    2.0810   25.0680 H   0  0  0  0  0  0  0  0  0  0  0  0
    9.6890    0.6890   26.1780 H   0  0  0  0  0  0  0  0  0  0  0  0
    6.0930    1.4360   21.8080 H   0  0  0  0  0  0  0  0  0  0  0  0
    5.4210    2.8170   22.6640 H   0  0  0  0  0  0  0  0  0  0  0  0
    5.8410    0.6110   25.8300 H   0  0  0  0  0  0  0  0  0  0  0  0
    4.9000    2.0030   25.3210 H   0  0  0  0  0  0  0  0  0  0  0  0
   11.9970    2.0120   24.1990 H   0  0  0  0  0  0  0  0  0  0  0  0
    8.3470   -1.8780   23.0080 H   0  0  0  0  0  0  0  0  0  0  0  0
    8.2480   -1.2510   24.6440 H   0  0  0  0  0  0  0  0  0  0  0  0
    4.2740    0.0070   22.0080 H   0  0  0  0  0  0  0  0  0  0  0  0
    3.4930    1.5510   21.6810 H   0  0  0  0  0  0  0  0  0  0  0  0
    3.3910    0.1810   25.5210 H   0  0  0  0  0  0  0  0  0  0  0  0
    4.3340   -0.7480   24.3520 H   0  0  0  0  0  0  0  0  0  0  0  0
   13.5360    0.8530   22.6390 H   0  0  0  0  0  0  0  0  0  0  0  0
   10.8540   -2.5580   22.3610 H   0  0  0  0  0  0  0  0  0  0  0  0
    7.0400   -3.2940   24.7740 H   0  0  0  0  0  0  0  0  0  0  0  0
    7.9000   -2.8140   26.2060 H   0  0  0  0  0  0  0  0  0  0  0  0
   11.1640   -3.3450   24.4580 H   0  0  0  0  0  0  0  0  0  0  0  0
   10.5890   -2.5520   25.8920 H   0  0  0  0  0  0  0  0  0  0  0  0
    7.9250   -5.4670   24.8930 H   0  0  0  0  0  0  0  0  0  0  0  0
    7.0570   -5.0140   26.3450 H   0  0  0  0  0  0  0  0  0  0  0  0
   11.2570   -4.6290   26.7080 H   0  0  0  0  0  0  0  0  0  0  0  0
   10.7920   -5.4890   25.2830 H   0  0  0  0  0  0  0  0  0  0  0  0
    9.3180   -6.1780   26.9340 H   0  0  0  0  0  0  0  0  0  0  0  0
    8.2400   -4.7410   28.3050 H   0  0  0  0  0  0  0  0  0  0  0  0
  1  2  1  0
  2  3  2  0
  1  4  1  0
  2  5  1  0
  4  6  1  0
  5  7  1  0
  5  8  1  0
  6  9  2  0
  6 10  1  0
 10 11  1  0
  7 12  1  0
  8 13  1  0
  9 14  1  0
 10 15  2  0
 12 16  1  0
 13 16  1  0
 14 17  2  0
 15 17  1  0
 11 18  1  0
 17 19  1  0
 18 20  1  0
 18 21  1  0
 19 22  3  0
 20 23  1  0
 21 24  1  0
 23 25  1  0
 24 25  1  0
 25 26  1  0
  1 27  1  0
  4 28  1  1
  4 29  1  0
  7 30  1  6
  7 31  1  0
  8 32  1  1
  8 33  1  0
  9 34  1  0
 11 35  1  6
 11 36  1  0
 12 37  1  6
 12 38  1  0
 13 39  1  1
 13 40  1  0
 14 41  1  0
 15 42  1  0
 20 43  1  6
 20 44  1  0
 21 45  1  6
 21 46  1  0
 23 47  1  6
 23 48  1  0
 24 49  1  1
 24 50  1  0
 25 51  1  1
 26 52  1  0
M  END
